dana4|P3|mol|1|dock1
  -GOLD-   1 31821 33D 1   1.00000     0.00000

 86 89  0  0  0  0  0  0  0  0  3 V2000
   -6.9756   15.3345   24.6158 S   0  0  0  0  0  0  0  0  0  0  0  0
   -9.2459   16.6473   33.4291 O   0  0  0  0  0  0  0  0  0  0  0  0
  -11.6084   15.7318   33.1482 O   0  0  0  0  0  0  0  0  0  0  0  0
  -10.1169   15.4516   31.0738 O   0  0  0  0  0  0  0  0  0  0  0  0
  -10.8720   18.0914   26.3795 O   0  0  0  0  0  0  0  0  0  0  0  0
   -8.7739   14.8450   29.3305 O   0  0  0  0  0  0  0  0  0  0  0  0
   -7.3318   13.9734   25.1827 O   0  0  0  0  0  0  0  0  0  0  0  0
   -5.4671   15.4872   24.5994 O   0  0  0  0  0  0  0  0  0  0  0  0
  -10.6218   16.1192   28.8776 N   0  0  0  0  0  0  0  0  0  0  0  0
   -7.6247   16.6365   25.6434 N   0  0  0  0  0  0  0  0  0  0  0  0
   -9.0603   15.6408   18.9861 N   0  0  0  0  0  0  0  0  0  0  0  0
   -9.7186   14.3651   33.3095 C   0  0  2  0  0  0  0  0  0  0  0  0
  -10.2672   15.6345   33.8383 C   0  0  1  0  0  0  0  0  0  0  0  0
   -9.1709   14.8164   31.9325 C   0  0  2  0  0  0  0  0  0  0  0  0
  -10.9269   13.4530   33.5153 C   0  0  0  0  0  0  0  0  0  0  0  0
   -8.2695   15.8654   32.5864 C   0  0  0  0  0  0  0  0  0  0  0  0
  -11.9531   14.3115   32.7836 C   0  0  1  0  0  0  0  0  0  0  0  0
  -10.5342   15.9223   27.4452 C   0  0  2  0  0  0  0  0  0  0  0  0
   -9.8615   17.1547   26.7437 C   0  0  1  0  0  0  0  0  0  0  0  0
   -9.7324   15.5047   29.7502 C   0  0  0  0  0  0  0  0  0  0  0  0
   -9.1086   16.7480   25.4451 C   0  0  0  0  0  0  0  0  0  0  0  0
  -11.9884   15.7441   26.8883 C   0  0  0  0  0  0  0  0  0  0  0  0
   -6.9371   17.9234   25.2887 C   0  0  0  0  0  0  0  0  0  0  0  0
   -6.0650   18.4992   26.4389 C   0  0  0  0  0  0  0  0  0  0  0  0
  -12.5121   14.3987   27.2819 C   0  0  0  0  0  0  0  0  0  0  0  0
   -7.5971   15.4396   22.9346 C   0  0  0  0  0  0  0  0  0  0  0  0
   -5.3554   17.3504   27.1742 C   0  0  0  0  0  0  0  0  0  0  0  0
   -5.0149   19.4400   25.8435 C   0  0  0  0  0  0  0  0  0  0  0  0
  -13.1571   14.2420   28.4347 C   0  0  0  0  0  0  0  0  0  0  0  0
  -12.3315   13.2587   26.3791 C   0  0  0  0  0  0  0  0  0  0  0  0
   -8.6590   14.7339   22.5508 C   0  0  0  0  0  0  0  0  0  0  0  0
   -6.9257   16.3266   21.9774 C   0  0  0  0  0  0  0  0  0  0  0  0
  -13.6915   12.9289   28.7974 C   0  0  0  0  0  0  0  0  0  0  0  0
  -12.8228   12.0666   26.7061 C   0  0  0  0  0  0  0  0  0  0  0  0
  -13.5352   11.8938   27.9729 C   0  0  0  0  0  0  0  0  0  0  0  0
   -7.3622   16.4187   20.7139 C   0  0  0  0  0  0  0  0  0  0  0  0
   -8.5422   15.6060   20.2983 C   0  0  0  0  0  0  0  0  0  0  0  0
   -8.8367   14.0169   33.8628 H   0  0  0  0  0  0  0  0  0  0  0  0
  -10.4572   15.5364   34.9155 H   0  0  0  0  0  0  0  0  0  0  0  0
   -8.6581   14.0138   31.3830 H   0  0  0  0  0  0  0  0  0  0  0  0
  -11.1342   13.4398   34.5936 H   0  0  0  0  0  0  0  0  0  0  0  0
  -10.8553   12.4260   33.1300 H   0  0  0  0  0  0  0  0  0  0  0  0
   -7.7048   16.4859   31.8771 H   0  0  0  0  0  0  0  0  0  0  0  0
   -7.5745   15.3333   33.2506 H   0  0  0  0  0  0  0  0  0  0  0  0
  -11.7171   14.2224   31.7243 H   0  0  0  0  0  0  0  0  0  0  0  0
   -9.9660   15.0085   27.2242 H   0  0  0  0  0  0  0  0  0  0  0  0
   -9.1673   17.6203   27.4509 H   0  0  0  0  0  0  0  0  0  0  0  0
   -9.3239   17.5255   24.7106 H   0  0  0  0  0  0  0  0  0  0  0  0
   -9.4715   15.7883   25.0674 H   0  0  0  0  0  0  0  0  0  0  0  0
  -11.3839   16.6155   29.2629 H   0  0  0  0  0  0  0  0  0  0  0  0
  -12.6379   16.5218   27.3030 H   0  0  0  0  0  0  0  0  0  0  0  0
  -11.9179   15.8120   25.7994 H   0  0  0  0  0  0  0  0  0  0  0  0
   -7.6906   18.6635   25.0073 H   0  0  0  0  0  0  0  0  0  0  0  0
   -6.2741   17.7356   24.4339 H   0  0  0  0  0  0  0  0  0  0  0  0
   -6.6873   19.0604   27.1478 H   0  0  0  0  0  0  0  0  0  0  0  0
  -10.8570   18.8510   27.0132 H   0  0  0  0  0  0  0  0  0  0  0  0
   -6.1067   16.6684   27.5989 H   0  0  0  0  0  0  0  0  0  0  0  0
   -4.7338   17.7623   27.9816 H   0  0  0  0  0  0  0  0  0  0  0  0
   -4.7206   16.8022   26.4642 H   0  0  0  0  0  0  0  0  0  0  0  0
   -4.2876   18.8549   25.2630 H   0  0  0  0  0  0  0  0  0  0  0  0
   -5.5100   20.1682   25.1864 H   0  0  0  0  0  0  0  0  0  0  0  0
   -4.4976   19.9696   26.6562 H   0  0  0  0  0  0  0  0  0  0  0  0
  -13.2915   15.0697   29.0842 H   0  0  0  0  0  0  0  0  0  0  0  0
  -11.8192   13.3882   25.4597 H   0  0  0  0  0  0  0  0  0  0  0  0
   -9.1498   14.1009   23.2419 H   0  0  0  0  0  0  0  0  0  0  0  0
   -6.0969   16.8985   22.3032 H   0  0  0  0  0  0  0  0  0  0  0  0
  -14.2082   12.8021   29.7145 H   0  0  0  0  0  0  0  0  0  0  0  0
  -12.6994   11.2435   26.0487 H   0  0  0  0  0  0  0  0  0  0  0  0
  -13.9267   10.9438   28.2348 H   0  0  0  0  0  0  0  0  0  0  0  0
   -8.6567   16.2099   18.2884 H   0  0  0  0  0  0  0  0  0  0  0  0
   -9.8479   15.0776   18.7602 H   0  0  0  0  0  0  0  0  0  0  0  0
  -13.3862   13.9093   32.9187 C   0  0  0  0  0  0  0  0  0  0  0  0
  -14.3531   14.5094   32.1186 O   0  5  0  0  0  0  0  0  0  0  0  0
  -13.7073   13.0285   33.7236 O   0  0  0  0  0  0  0  0  0  0  0  0
   -9.1440   14.8177   21.1831 C   0  0  0  0  0  0  0  0  0  0  0  0
   -9.9846   14.2424   20.8877 H   0  0  0  0  0  0  0  0  0  0  0  0
   -6.6839   17.3602   19.7144 C   0  0  0  0  0  0  0  0  0  0  0  0
   -7.4369   17.7997   19.0529 H   0  0  0  0  0  0  0  0  0  0  0  0
   -6.1951   18.1629   20.2819 H   0  0  0  0  0  0  0  0  0  0  0  0
   -5.5844   16.6676   18.8871 C   0  0  0  0  0  0  0  0  0  0  0  0
   -4.6533   16.6180   19.4690 H   0  0  0  0  0  0  0  0  0  0  0  0
   -5.9066   15.6518   18.6224 H   0  0  0  0  0  0  0  0  0  0  0  0
   -5.3475   17.4415   17.6680 N   0  3  0  0  0  0  0  0  0  0  0  0
   -6.1526   17.3390   17.0347 H   0  0  0  0  0  0  0  0  0  0  0  0
   -4.4967   17.0947   17.2031 H   0  0  0  0  0  0  0  0  0  0  0  0
   -5.2252   18.4337   17.9123 H   0  0  0  0  0  0  0  0  0  0  0  0
  1  7  2  0  0  0  0
  1  8  2  0  0  0  0
  1 10  1  0  0  0  0
  1 26  1  0  0  0  0
  2 13  1  0  0  0  0
  2 16  1  0  0  0  0
  3 13  1  0  0  0  0
  3 17  1  0  0  0  0
  4 14  1  0  0  0  0
  4 20  1  0  0  0  0
  5 19  1  0  0  0  0
  5 56  1  0  0  0  0
  6 20  2  0  0  0  0
  9 18  1  0  0  0  0
  9 20  1  0  0  0  0
  9 50  1  0  0  0  0
 10 21  1  0  0  0  0
 10 23  1  0  0  0  0
 11 37  1  0  0  0  0
 11 70  1  0  0  0  0
 11 71  1  0  0  0  0
 12 13  1  0  0  0  0
 12 14  1  0  0  0  0
 12 15  1  0  0  0  0
 12 38  1  0  0  0  0
 13 39  1  0  0  0  0
 14 16  1  0  0  0  0
 14 40  1  0  0  0  0
 15 17  1  0  0  0  0
 15 41  1  0  0  0  0
 15 42  1  0  0  0  0
 16 43  1  0  0  0  0
 16 44  1  0  0  0  0
 17 45  1  0  0  0  0
 17 72  1  0  0  0  0
 18 19  1  0  0  0  0
 18 22  1  0  0  0  0
 18 46  1  0  0  0  0
 19 21  1  0  0  0  0
 19 47  1  0  0  0  0
 21 48  1  0  0  0  0
 21 49  1  0  0  0  0
 22 25  1  0  0  0  0
 22 51  1  0  0  0  0
 22 52  1  0  0  0  0
 23 24  1  0  0  0  0
 23 53  1  0  0  0  0
 23 54  1  0  0  0  0
 24 27  1  0  0  0  0
 24 28  1  0  0  0  0
 24 55  1  0  0  0  0
 25 29  2  0  0  0  0
 25 30  1  0  0  0  0
 26 31  2  0  0  0  0
 26 32  1  0  0  0  0
 27 57  1  0  0  0  0
 27 58  1  0  0  0  0
 27 59  1  0  0  0  0
 28 60  1  0  0  0  0
 28 61  1  0  0  0  0
 28 62  1  0  0  0  0
 29 33  1  0  0  0  0
 29 63  1  0  0  0  0
 30 34  2  0  0  0  0
 30 64  1  0  0  0  0
 31 65  1  0  0  0  0
 31 75  1  0  0  0  0
 32 36  2  0  0  0  0
 32 66  1  0  0  0  0
 33 35  2  0  0  0  0
 33 67  1  0  0  0  0
 34 35  1  0  0  0  0
 34 68  1  0  0  0  0
 35 69  1  0  0  0  0
 36 37  1  0  0  0  0
 36 77  1  0  0  0  0
 37 75  2  0  0  0  0
 72 73  1  0  0  0  0
 72 74  2  0  0  0  0
 75 76  1  0  0  0  0
 77 78  1  0  0  0  0
 77 79  1  0  0  0  0
 77 80  1  0  0  0  0
 80 81  1  0  0  0  0
 80 82  1  0  0  0  0
 80 83  1  0  0  0  0
 83 84  1  0  0  0  0
 83 85  1  0  0  0  0
 83 86  1  0  0  0  0
M  CHG  1  73  -1
M  CHG  1  83   1
M  END
> <Clean Energy>
118.606

> <Gold.Version>
5.6.1

> <Gold.Id.Protein>
ID|ID_protein|mol2

> <Gold.Goldscore.Fitness>
99.1261

> <Gold.Goldscore.Internal.Vdw>
-13.7593

> <Gold.Goldscore.Internal.Torsion>
-18.0118

> <Gold.Goldscore.External.Vdw>
63.4151

> <Gold.Goldscore.Internal.HBond>
0.0000

> <Gold.Goldscore.External.HBond>
30.3181

> <Gold.Goldscore.Internal.Correction>
-13.3832

> <Gold.Goldscore.Reference.RMSD>
1.1192

> <Gold.Goldscore.Hbonds>
donor molecule, donor type, donor heavy atom, donor atom, acceptor molecule, acceptor atom, score
      P1  H  1141  2124       L1     7  0.01
      P1  H   381  2001       L1     7  0.05
      P1  H   976  2166       L1     3  0.06
      P1  H    73  2240       L1    73  0.87
      P1  H   984  2167       L1     3  0.28
      L1  H     5    56       P1   958  0.99
      L1  H     9    50       P1   970  0.08
      L1  H    11    70       P1   231  0.21
      L1  H    83    84       P1   231  0.60
      L1  H    83    86       P1   223  0.75

> <Gold.Goldscore.Internal.Vdw.Weighted>
-13.7593

> <Gold.Goldscore.Internal.Torsion.Weighted>
-18.0118

> <Gold.Goldscore.External.Vdw.Weighted>
87.1958

> <Gold.Goldscore.Internal.HBond.Weighted>
0.0000

> <Gold.Goldscore.External.HBond.Weighted>
30.3181

> <Gold.Goldscore.Internal.Correction.Weighted>
-13.3832

> <Gold.Reference.RMSD>
1.1192

> <Gold.Protein.RotatedTorsions>
[ 1648  237  236  233 ] final  117.68 input   60.00 | X-H torsion
[ 1672  356  355  354 ] final   59.77 input   60.00 | X-H torsion
[ 1841  613  612  609 ] final  134.52 input   60.00 | X-H torsion
[ 3049 1373 1372 1369 ] final   58.88 input   60.00 | X-H torsion
[ 1557  205  204  201 ] final -124.53 input   60.00 | X-H torsion
[ 2168  965  964  961 ] final  157.57 input   60.00 | X-H torsion
[ 2192  997  996  993 ] final   80.91 input   60.00 | X-H torsion
[ 2139 1116 1115 1114 ] final   -3.04 input   60.00 | X-H torsion

> <Gold.Protein.ActiveResidues>
 LEU5    ARG8    PRO9    LEU10   ALA22   LEU23   LEU24   ASP25   THR26   GLY27  
 ALA28   ASP29   ASP30   THR31   VAL32   LEU33   GLU34   LYS45   MET46   ILE47  
 GLY48   GLY49   ILE50   GLY51   GLY52   PHE53   ILE54   VAL56   GLN58   THR74  
 VAL75   LEU76   VAL77   PRO79   THR80   PRO81   VAL82   ASN83   ILE84   ILE85  
 GLY86   ARG87   ASN88   LEU89   LEU90   LEU97   ARG8    PRO9    LEU10   ALA22  
 LEU23   LEU24   ASP25   THR26   GLY27   ALA28   ASP29   ASP30   THR31   VAL32  
 LEU33   GLU34   LYS45   MET46   ILE47   GLY48   GLY49   ILE50   GLY51   GLY52  
 PHE53   ILE54   VAL56   THR74   VAL75   LEU76   PRO79   THR80   PRO81   VAL82  
 ASN83   ILE84   ILE85   GLY86   ARG87   ASN88   LEU89   LEU90   LEU97  

> <Gold.Protein.RotatedAtoms>
  -13.1606   25.2292   27.0201 H   0  0  0  0  0  0  0  0  0  0  0  0  # atno 1557 bound_to 205 
  -15.4008   19.2323   15.5791 H   0  0  0  0  0  0  0  0  0  0  0  0  # atno 1648 bound_to 237 
   -4.7849   15.1839   11.5177 H   0  0  0  0  0  0  0  0  0  0  0  0  # atno 1672 bound_to 356 
   -4.2630   15.4018   13.0758 H   0  0  0  0  0  0  0  0  0  0  0  0  # atno 1673 bound_to 356 
   -3.8535   14.0244   12.2497 H   0  0  0  0  0  0  0  0  0  0  0  0  # atno 1674 bound_to 356 
  -13.0619   11.1746   22.6639 H   0  0  0  0  0  0  0  0  0  0  0  0  # atno 1841 bound_to 613 
   -9.1815   13.5662   40.0598 H   0  0  0  0  0  0  0  0  0  0  0  0  # atno 2139 bound_to 1116
  -10.3025   12.5896   39.3272 H   0  0  0  0  0  0  0  0  0  0  0  0  # atno 2140 bound_to 1116
  -10.7073   13.4353   40.6940 H   0  0  0  0  0  0  0  0  0  0  0  0  # atno 2141 bound_to 1116
  -16.1961   23.3635   26.5036 H   0  0  0  0  0  0  0  0  0  0  0  0  # atno 2168 bound_to 965 
   -9.1877   22.5281   37.4871 H   0  0  0  0  0  0  0  0  0  0  0  0  # atno 2192 bound_to 997 
   -2.6526   16.1765   30.0249 H   0  0  0  0  0  0  0  0  0  0  0  0  # atno 3049 bound_to 1373
  -14.9465   18.9540   17.1167 LP  0  0  0  0  0  0  0  0  0  0  0  0  # atno 3161 bound_to 237 
  -16.5108   18.7825   16.6807 LP  0  0  0  0  0  0  0  0  0  0  0  0  # atno 3162 bound_to 237 
  -13.1878    9.9139   23.6851 LP  0  0  0  0  0  0  0  0  0  0  0  0  # atno 3183 bound_to 613 
  -14.5143   10.4892   22.9261 LP  0  0  0  0  0  0  0  0  0  0  0  0  # atno 3184 bound_to 613 
   -1.5437   17.3673   30.0103 LP  0  0  0  0  0  0  0  0  0  0  0  0  # atno 3221 bound_to 1373
   -2.8744   17.4983   30.9476 LP  0  0  0  0  0  0  0  0  0  0  0  0  # atno 3222 bound_to 1373
  -11.5779   25.4434   26.7081 LP  0  0  0  0  0  0  0  0  0  0  0  0  # atno 3235 bound_to 205 
  -12.2420   23.9562   26.5915 LP  0  0  0  0  0  0  0  0  0  0  0  0  # atno 3236 bound_to 205 
  -15.1577   22.1806   26.9165 LP  0  0  0  0  0  0  0  0  0  0  0  0  # atno 3271 bound_to 965 
  -14.5951   23.6549   26.4959 LP  0  0  0  0  0  0  0  0  0  0  0  0  # atno 3272 bound_to 965 
   -8.5228   22.7530   36.0190 LP  0  0  0  0  0  0  0  0  0  0  0  0  # atno 3287 bound_to 997 
   -8.1085   23.7254   37.2638 LP  0  0  0  0  0  0  0  0  0  0  0  0  # atno 3288 bound_to 997 

$$$$
