dana4|P1|mol|1|dock1
  -GOLD-   1 31819283D 1   1.00000     0.00000

 83 86  0  0  0  0  0  0  0  0  3 V2000
   -7.8967   15.0020   24.5787 S   0  0  0  0  0  0  0  0  0  0  0  0
   -9.1552   16.4391   33.0028 O   0  0  0  0  0  0  0  0  0  0  0  0
  -11.5797   15.6527   32.9923 O   0  0  0  0  0  0  0  0  0  0  0  0
  -10.3269   15.2303   30.7880 O   0  0  0  0  0  0  0  0  0  0  0  0
  -11.0921   18.2503   26.5045 O   0  0  0  0  0  0  0  0  0  0  0  0
   -8.7566   15.3562   29.1363 O   0  0  0  0  0  0  0  0  0  0  0  0
   -8.9985   14.0288   24.9524 O   0  0  0  0  0  0  0  0  0  0  0  0
   -6.5503   14.3334   24.7772 O   0  0  0  0  0  0  0  0  0  0  0  0
  -10.9135   15.9243   28.6207 N   0  0  0  0  0  0  0  0  0  0  0  0
   -7.9333   16.4336   25.6326 N   0  0  0  0  0  0  0  0  0  0  0  0
   -8.5389   16.4977   18.7963 N   0  0  0  0  0  0  0  0  0  0  0  0
   -9.7599   14.1849   33.0065 C   0  0  2  0  0  0  0  0  0  0  0  0
  -10.1822   15.4977   33.5461 C   0  0  1  0  0  0  0  0  0  0  0  0
   -9.3331   14.5665   31.5673 C   0  0  2  0  0  0  0  0  0  0  0  0
  -10.9883   13.3493   33.3635 C   0  0  0  0  0  0  0  0  0  0  0  0
   -8.3142   15.5803   32.0921 C   0  0  0  0  0  0  0  0  0  0  0  0
  -12.0364   14.2450   32.7115 C   0  0  1  0  0  0  0  0  0  0  0  0
  -10.6734   15.9477   27.1931 C   0  0  2  0  0  0  0  0  0  0  0  0
  -10.0453   17.3144   26.7482 C   0  0  1  0  0  0  0  0  0  0  0  0
   -9.9135   15.5714   29.5177 C   0  0  0  0  0  0  0  0  0  0  0  0
   -9.2209   17.1790   25.4358 C   0  0  0  0  0  0  0  0  0  0  0  0
  -12.0462   15.7507   26.4629 C   0  0  0  0  0  0  0  0  0  0  0  0
   -6.7542   17.3017   25.3013 C   0  0  0  0  0  0  0  0  0  0  0  0
   -6.2613   18.1602   26.5002 C   0  0  0  0  0  0  0  0  0  0  0  0
  -12.6345   14.4330   26.8575 C   0  0  0  0  0  0  0  0  0  0  0  0
   -8.0810   15.4524   22.8535 C   0  0  0  0  0  0  0  0  0  0  0  0
   -5.6448   17.2450   27.5713 C   0  0  0  0  0  0  0  0  0  0  0  0
   -5.1972   19.1426   26.0056 C   0  0  0  0  0  0  0  0  0  0  0  0
  -12.1511   13.3029   26.3488 C   0  0  0  0  0  0  0  0  0  0  0  0
  -13.7316   14.3924   27.8283 C   0  0  0  0  0  0  0  0  0  0  0  0
   -9.2618   15.3545   22.2455 C   0  0  0  0  0  0  0  0  0  0  0  0
   -6.9172   15.9463   22.1088 C   0  0  0  0  0  0  0  0  0  0  0  0
  -12.7141   12.0175   26.7651 C   0  0  0  0  0  0  0  0  0  0  0  0
  -14.2387   13.2239   28.2112 C   0  0  0  0  0  0  0  0  0  0  0  0
  -13.7060   11.9799   27.6542 C   0  0  0  0  0  0  0  0  0  0  0  0
   -7.0310   16.2908   20.8232 C   0  0  0  0  0  0  0  0  0  0  0  0
   -8.3518   16.1618   20.1531 C   0  0  0  0  0  0  0  0  0  0  0  0
   -8.8460   13.8023   33.4791 H   0  0  0  0  0  0  0  0  0  0  0  0
  -10.2656   15.4399   34.6396 H   0  0  0  0  0  0  0  0  0  0  0  0
   -8.9230   13.7217   30.9955 H   0  0  0  0  0  0  0  0  0  0  0  0
  -11.0839   13.3774   34.4570 H   0  0  0  0  0  0  0  0  0  0  0  0
  -11.0123   12.3097   33.0070 H   0  0  0  0  0  0  0  0  0  0  0  0
   -7.7925   16.1481   31.3095 H   0  0  0  0  0  0  0  0  0  0  0  0
   -7.5842   15.0278   32.7000 H   0  0  0  0  0  0  0  0  0  0  0  0
  -11.9159   14.1136   31.6373 H   0  0  0  0  0  0  0  0  0  0  0  0
  -10.0099   15.1196   26.9092 H   0  0  0  0  0  0  0  0  0  0  0  0
   -9.4063   17.6815   27.5574 H   0  0  0  0  0  0  0  0  0  0  0  0
   -9.0098   18.1955   25.1003 H   0  0  0  0  0  0  0  0  0  0  0  0
   -9.7968   16.6601   24.6648 H   0  0  0  0  0  0  0  0  0  0  0  0
  -11.8263   16.0632   28.9714 H   0  0  0  0  0  0  0  0  0  0  0  0
  -12.7328   16.5540   26.7490 H   0  0  0  0  0  0  0  0  0  0  0  0
  -11.8350   15.7598   25.3881 H   0  0  0  0  0  0  0  0  0  0  0  0
   -7.0207   17.9629   24.4711 H   0  0  0  0  0  0  0  0  0  0  0  0
   -5.9230   16.6521   24.9967 H   0  0  0  0  0  0  0  0  0  0  0  0
   -7.0954   18.7252   26.9356 H   0  0  0  0  0  0  0  0  0  0  0  0
  -10.8950   19.0929   26.9837 H   0  0  0  0  0  0  0  0  0  0  0  0
   -6.4295   16.6057   28.0021 H   0  0  0  0  0  0  0  0  0  0  0  0
   -5.1955   17.8604   28.3631 H   0  0  0  0  0  0  0  0  0  0  0  0
   -4.8705   16.6163   27.1097 H   0  0  0  0  0  0  0  0  0  0  0  0
   -4.8515   19.7601   26.8469 H   0  0  0  0  0  0  0  0  0  0  0  0
   -4.3499   18.5813   25.5884 H   0  0  0  0  0  0  0  0  0  0  0  0
   -5.6302   19.7878   25.2280 H   0  0  0  0  0  0  0  0  0  0  0  0
  -11.3531   13.3339   25.6512 H   0  0  0  0  0  0  0  0  0  0  0  0
  -14.1124   15.2953   28.2338 H   0  0  0  0  0  0  0  0  0  0  0  0
  -10.1047   15.0043   22.7830 H   0  0  0  0  0  0  0  0  0  0  0  0
   -5.9842   16.0331   22.6001 H   0  0  0  0  0  0  0  0  0  0  0  0
  -12.3288   11.1154   26.3630 H   0  0  0  0  0  0  0  0  0  0  0  0
  -15.0271   13.1945   28.9202 H   0  0  0  0  0  0  0  0  0  0  0  0
  -14.1100   11.0479   27.9582 H   0  0  0  0  0  0  0  0  0  0  0  0
   -7.7911   16.8328   18.2421 H   0  0  0  0  0  0  0  0  0  0  0  0
   -9.4394   16.3923   18.3887 H   0  0  0  0  0  0  0  0  0  0  0  0
  -13.4678   13.9294   33.0041 C   0  0  0  0  0  0  0  0  0  0  0  0
  -14.4731   14.4669   32.2070 O   0  5  0  0  0  0  0  0  0  0  0  0
  -13.7551   13.1734   33.9384 O   0  0  0  0  0  0  0  0  0  0  0  0
   -9.3994   15.7178   20.8417 C   0  0  0  0  0  0  0  0  0  0  0  0
  -10.3419   15.6264   20.3642 H   0  0  0  0  0  0  0  0  0  0  0  0
   -5.8293   16.8234   20.0534 C   0  0  0  0  0  0  0  0  0  0  0  0
   -6.1776   17.4879   19.2517 H   0  0  0  0  0  0  0  0  0  0  0  0
   -5.2367   17.4352   20.7470 H   0  0  0  0  0  0  0  0  0  0  0  0
   -4.9554   15.7628   19.5228 N   0  3  0  0  0  0  0  0  0  0  0  0
   -5.4672   15.2348   18.8036 H   0  0  0  0  0  0  0  0  0  0  0  0
   -4.6940   15.1301   20.2792 H   0  0  0  0  0  0  0  0  0  0  0  0
   -4.1117   16.1710   19.1008 H   0  0  0  0  0  0  0  0  0  0  0  0
  1  7  2  0  0  0  0
  1  8  2  0  0  0  0
  1 10  1  0  0  0  0
  1 26  1  0  0  0  0
  2 13  1  0  0  0  0
  2 16  1  0  0  0  0
  3 13  1  0  0  0  0
  3 17  1  0  0  0  0
  4 14  1  0  0  0  0
  4 20  1  0  0  0  0
  5 19  1  0  0  0  0
  5 56  1  0  0  0  0
  6 20  2  0  0  0  0
  9 18  1  0  0  0  0
  9 20  1  0  0  0  0
  9 50  1  0  0  0  0
 10 21  1  0  0  0  0
 10 23  1  0  0  0  0
 11 37  1  0  0  0  0
 11 70  1  0  0  0  0
 11 71  1  0  0  0  0
 12 13  1  0  0  0  0
 12 14  1  0  0  0  0
 12 15  1  0  0  0  0
 12 38  1  0  0  0  0
 13 39  1  0  0  0  0
 14 16  1  0  0  0  0
 14 40  1  0  0  0  0
 15 17  1  0  0  0  0
 15 41  1  0  0  0  0
 15 42  1  0  0  0  0
 16 43  1  0  0  0  0
 16 44  1  0  0  0  0
 17 45  1  0  0  0  0
 17 72  1  0  0  0  0
 18 19  1  0  0  0  0
 18 22  1  0  0  0  0
 18 46  1  0  0  0  0
 19 21  1  0  0  0  0
 19 47  1  0  0  0  0
 21 48  1  0  0  0  0
 21 49  1  0  0  0  0
 22 25  1  0  0  0  0
 22 51  1  0  0  0  0
 22 52  1  0  0  0  0
 23 24  1  0  0  0  0
 23 53  1  0  0  0  0
 23 54  1  0  0  0  0
 24 27  1  0  0  0  0
 24 28  1  0  0  0  0
 24 55  1  0  0  0  0
 25 29  2  0  0  0  0
 25 30  1  0  0  0  0
 26 31  2  0  0  0  0
 26 32  1  0  0  0  0
 27 57  1  0  0  0  0
 27 58  1  0  0  0  0
 27 59  1  0  0  0  0
 28 60  1  0  0  0  0
 28 61  1  0  0  0  0
 28 62  1  0  0  0  0
 29 33  1  0  0  0  0
 29 63  1  0  0  0  0
 30 34  2  0  0  0  0
 30 64  1  0  0  0  0
 31 65  1  0  0  0  0
 31 75  1  0  0  0  0
 32 36  2  0  0  0  0
 32 66  1  0  0  0  0
 33 35  2  0  0  0  0
 33 67  1  0  0  0  0
 34 35  1  0  0  0  0
 34 68  1  0  0  0  0
 35 69  1  0  0  0  0
 36 37  1  0  0  0  0
 36 77  1  0  0  0  0
 37 75  2  0  0  0  0
 72 73  1  0  0  0  0
 72 74  2  0  0  0  0
 75 76  1  0  0  0  0
 77 78  1  0  0  0  0
 77 79  1  0  0  0  0
 77 80  1  0  0  0  0
 80 81  1  0  0  0  0
 80 82  1  0  0  0  0
 80 83  1  0  0  0  0
M  CHG  1  73  -1
M  CHG  1  80   1
M  END
> <Clean Energy>
118.846

> <Gold.Version>
5.6.1

> <Gold.Id.Protein>
ID|ID_protein|mol2

> <Gold.Goldscore.Fitness>
100.4083

> <Gold.Goldscore.Internal.Vdw>
-9.0527

> <Gold.Goldscore.Internal.Torsion>
-12.7152

> <Gold.Goldscore.External.Vdw>
63.6239

> <Gold.Goldscore.Internal.HBond>
0.0000

> <Gold.Goldscore.External.HBond>
21.7111

> <Gold.Goldscore.Internal.Correction>
-12.9822

> <Gold.Goldscore.Reference.RMSD>
0.8916

> <Gold.Goldscore.Hbonds>
donor molecule, donor type, donor heavy atom, donor atom, acceptor molecule, acceptor atom, score
      P1  H   976  2166       L1     3  0.10
      P1  H    73  2240       L1    73  0.89
      P1  H   984  2167       L1     3  0.28
      L1  H     5    56       P1   958  1.00
      L1  H     9    50       P1   970  0.02
      L1  H    11    71       P1   227  0.09
      L1  H    80    82       P1   376  0.97

> <Gold.Goldscore.Internal.Vdw.Weighted>
-9.0527

> <Gold.Goldscore.Internal.Torsion.Weighted>
-12.7152

> <Gold.Goldscore.External.Vdw.Weighted>
87.4829

> <Gold.Goldscore.Internal.HBond.Weighted>
0.0000

> <Gold.Goldscore.External.HBond.Weighted>
21.7111

> <Gold.Goldscore.Internal.Correction.Weighted>
-12.9822

> <Gold.Reference.RMSD>
0.8916

> <Gold.Protein.RotatedTorsions>
[ 1648  237  236  233 ] final  -59.28 input   60.00 | X-H torsion
[ 1672  356  355  354 ] final  171.41 input   60.00 | X-H torsion
[ 1841  613  612  609 ] final   52.71 input   60.00 | X-H torsion
[ 3049 1373 1372 1369 ] final   81.60 input   60.00 | X-H torsion
[ 1557  205  204  201 ] final -153.79 input   60.00 | X-H torsion
[ 2168  965  964  961 ] final -140.92 input   60.00 | X-H torsion
[ 2192  997  996  993 ] final   35.74 input   60.00 | X-H torsion
[ 2139 1116 1115 1114 ] final  -21.48 input   60.00 | X-H torsion

> <Gold.Protein.ActiveResidues>
 LEU5    ARG8    PRO9    LEU10   ALA22   LEU23   LEU24   ASP25   THR26   GLY27  
 ALA28   ASP29   ASP30   THR31   VAL32   LEU33   GLU34   LYS45   MET46   ILE47  
 GLY48   GLY49   ILE50   GLY51   GLY52   PHE53   ILE54   VAL56   GLN58   THR74  
 VAL75   LEU76   VAL77   PRO79   THR80   PRO81   VAL82   ASN83   ILE84   ILE85  
 GLY86   ARG87   ASN88   LEU89   LEU90   LEU97   ARG8    PRO9    LEU10   ALA22  
 LEU23   LEU24   ASP25   THR26   GLY27   ALA28   ASP29   ASP30   THR31   VAL32  
 LEU33   GLU34   LYS45   MET46   ILE47   GLY48   GLY49   ILE50   GLY51   GLY52  
 PHE53   ILE54   VAL56   THR74   VAL75   LEU76   PRO79   THR80   PRO81   VAL82  
 ASN83   ILE84   ILE85   GLY86   ARG87   ASN88   LEU89   LEU90   LEU97  

> <Gold.Protein.RotatedAtoms>
  -12.8683   25.6012   27.0211 H   0  0  0  0  0  0  0  0  0  0  0  0  # atno 1557 bound_to 205 
  -15.7885   18.7506   17.3457 H   0  0  0  0  0  0  0  0  0  0  0  0  # atno 1648 bound_to 237 
   -4.3415   15.4935   13.0060 H   0  0  0  0  0  0  0  0  0  0  0  0  # atno 1672 bound_to 356 
   -3.8145   14.0517   12.3807 H   0  0  0  0  0  0  0  0  0  0  0  0  # atno 1673 bound_to 356 
   -4.7454   15.0649   11.4565 H   0  0  0  0  0  0  0  0  0  0  0  0  # atno 1674 bound_to 356 
  -12.7591   10.2923   23.4596 H   0  0  0  0  0  0  0  0  0  0  0  0  # atno 1841 bound_to 613 
   -9.3007   13.7017   40.3077 H   0  0  0  0  0  0  0  0  0  0  0  0  # atno 2139 bound_to 1116
  -10.0116   12.6447   39.2473 H   0  0  0  0  0  0  0  0  0  0  0  0  # atno 2140 bound_to 1116
  -10.8790   13.2447   40.5259 H   0  0  0  0  0  0  0  0  0  0  0  0  # atno 2141 bound_to 1116
  -15.4538   23.9515   26.3629 H   0  0  0  0  0  0  0  0  0  0  0  0  # atno 2168 bound_to 965 
   -9.1847   22.2719   36.8151 H   0  0  0  0  0  0  0  0  0  0  0  0  # atno 2192 bound_to 997 
   -2.9243   16.2703   30.2560 H   0  0  0  0  0  0  0  0  0  0  0  0  # atno 3049 bound_to 1373
  -16.3246   19.0139   15.8320 LP  0  0  0  0  0  0  0  0  0  0  0  0  # atno 3161 bound_to 237 
  -14.7423   19.2078   16.1862 LP  0  0  0  0  0  0  0  0  0  0  0  0  # atno 3162 bound_to 237 
  -14.3620   10.0453   23.3263 LP  0  0  0  0  0  0  0  0  0  0  0  0  # atno 3183 bound_to 613 
  -13.6451   11.2463   22.4834 LP  0  0  0  0  0  0  0  0  0  0  0  0  # atno 3184 bound_to 613 
   -1.5581   17.0439   29.8282 LP  0  0  0  0  0  0  0  0  0  0  0  0  # atno 3221 bound_to 1373
   -2.5863   17.7273   30.8970 LP  0  0  0  0  0  0  0  0  0  0  0  0  # atno 3222 bound_to 1373
  -11.4129   25.0112   26.5945 LP  0  0  0  0  0  0  0  0  0  0  0  0  # atno 3235 bound_to 205 
  -12.7013   24.0138   26.7040 LP  0  0  0  0  0  0  0  0  0  0  0  0  # atno 3236 bound_to 205 
  -16.0571   22.4968   26.7729 LP  0  0  0  0  0  0  0  0  0  0  0  0  # atno 3271 bound_to 965 
  -14.4433   22.7465   26.7811 LP  0  0  0  0  0  0  0  0  0  0  0  0  # atno 3272 bound_to 965 
   -8.1037   23.3174   36.1933 LP  0  0  0  0  0  0  0  0  0  0  0  0  # atno 3287 bound_to 997 
   -8.5306   23.4189   37.7662 LP  0  0  0  0  0  0  0  0  0  0  0  0  # atno 3288 bound_to 997 

$$$$
