dana5|M10|mol|1|dock1
  -GOLD-   1 31810213D 1   1.00000     0.00000

 77 80  0  0  0  0  0  0  0  0  3 V2000
   -8.5855   14.8140   24.5562 S   0  0  0  0  0  0  0  0  0  0  0  0
   -9.1351   16.3933   33.1933 O   0  0  0  0  0  0  0  0  0  0  0  0
  -11.5470   15.5712   33.2033 O   0  0  0  0  0  0  0  0  0  0  0  0
  -10.3068   15.1631   30.9871 O   0  0  0  0  0  0  0  0  0  0  0  0
  -11.3697   18.1270   26.7570 O   0  0  0  0  0  0  0  0  0  0  0  0
   -8.8133   15.1363   29.2602 O   0  0  0  0  0  0  0  0  0  0  0  0
   -9.9963   14.2901   24.7452 O   0  0  0  0  0  0  0  0  0  0  0  0
   -7.5923   13.7827   25.0554 O   0  0  0  0  0  0  0  0  0  0  0  0
  -10.9421   15.8625   28.8324 N   0  0  0  0  0  0  0  0  0  0  0  0
   -8.3333   16.2960   25.4996 N   0  0  0  0  0  0  0  0  0  0  0  0
   -7.6105   15.7585   18.7374 N   0  0  0  0  0  0  0  0  0  0  0  0
   -9.7060   14.1303   33.2039 C   0  0  2  0  0  0  0  0  0  0  0  0
  -10.1432   15.4373   33.7456 C   0  0  1  0  0  0  0  0  0  0  0  0
   -9.2964   14.5164   31.7606 C   0  0  2  0  0  0  0  0  0  0  0  0
  -10.9186   13.2771   33.5721 C   0  0  0  0  0  0  0  0  0  0  0  0
   -8.2886   15.5461   32.2771 C   0  0  0  0  0  0  0  0  0  0  0  0
  -11.9852   14.1569   32.9281 C   0  0  1  0  0  0  0  0  0  0  0  0
  -10.7657   15.8501   27.3947 C   0  0  2  0  0  0  0  0  0  0  0  0
  -10.2576   17.2445   26.8824 C   0  0  1  0  0  0  0  0  0  0  0  0
   -9.9308   15.4462   29.6903 C   0  0  0  0  0  0  0  0  0  0  0  0
   -9.5783   17.1420   25.4852 C   0  0  0  0  0  0  0  0  0  0  0  0
  -12.1541   15.5174   26.7334 C   0  0  0  0  0  0  0  0  0  0  0  0
   -7.1762   17.0377   24.8987 C   0  0  0  0  0  0  0  0  0  0  0  0
   -6.5630   18.1029   25.8520 C   0  0  1  0  0  0  0  0  0  0  0  0
  -12.6746   14.2385   27.3161 C   0  0  0  0  0  0  0  0  0  0  0  0
   -8.3014   15.1158   22.8187 C   0  0  0  0  0  0  0  0  0  0  0  0
   -5.4607   17.4542   26.7068 C   0  0  0  0  0  0  0  0  0  0  0  0
  -13.7987   14.2315   28.0276 C   0  0  0  0  0  0  0  0  0  0  0  0
  -11.9519   12.9866   27.0716 C   0  0  0  0  0  0  0  0  0  0  0  0
   -9.2525   15.9039   22.0257 C   0  0  0  0  0  0  0  0  0  0  0  0
   -7.2123   14.6163   22.2363 C   0  0  0  0  0  0  0  0  0  0  0  0
  -13.6620   11.8312   28.3334 C   0  0  0  0  0  0  0  0  0  0  0  0
   -6.9706   14.8414   20.8134 C   0  0  0  0  0  0  0  0  0  0  0  0
   -7.8392   15.5492   20.0947 C   0  0  0  0  0  0  0  0  0  0  0  0
   -8.7826   13.7620   33.6694 H   0  0  0  0  0  0  0  0  0  0  0  0
  -10.2167   15.3793   34.8399 H   0  0  0  0  0  0  0  0  0  0  0  0
   -8.8775   13.6773   31.1866 H   0  0  0  0  0  0  0  0  0  0  0  0
  -11.0054   13.3052   34.6663 H   0  0  0  0  0  0  0  0  0  0  0  0
  -10.9304   12.2369   33.2170 H   0  0  0  0  0  0  0  0  0  0  0  0
   -7.7813   16.1208   31.4900 H   0  0  0  0  0  0  0  0  0  0  0  0
   -7.5459   15.0053   32.8800 H   0  0  0  0  0  0  0  0  0  0  0  0
  -11.8719   14.0257   31.8531 H   0  0  0  0  0  0  0  0  0  0  0  0
  -10.0528   15.0642   27.1106 H   0  0  0  0  0  0  0  0  0  0  0  0
   -9.5512   17.6469   27.6150 H   0  0  0  0  0  0  0  0  0  0  0  0
   -9.3252   18.1616   25.1901 H   0  0  0  0  0  0  0  0  0  0  0  0
  -10.2673   16.7179   24.7500 H   0  0  0  0  0  0  0  0  0  0  0  0
  -11.8245   16.0768   29.2212 H   0  0  0  0  0  0  0  0  0  0  0  0
  -12.8618   16.3268   26.9435 H   0  0  0  0  0  0  0  0  0  0  0  0
  -11.9788   15.3987   25.6550 H   0  0  0  0  0  0  0  0  0  0  0  0
   -7.5066   17.5256   23.9754 H   0  0  0  0  0  0  0  0  0  0  0  0
   -6.3865   16.3117   24.6638 H   0  0  0  0  0  0  0  0  0  0  0  0
   -7.3370   18.5222   26.5073 H   0  0  0  0  0  0  0  0  0  0  0  0
  -11.0991   19.0357   27.0387 H   0  0  0  0  0  0  0  0  0  0  0  0
   -5.0530   18.1997   27.4055 H   0  0  0  0  0  0  0  0  0  0  0  0
   -4.6585   17.0867   26.0516 H   0  0  0  0  0  0  0  0  0  0  0  0
   -5.8872   16.6144   27.2729 H   0  0  0  0  0  0  0  0  0  0  0  0
  -14.3249   15.1362   28.1974 H   0  0  0  0  0  0  0  0  0  0  0  0
  -11.0582   12.9950   26.5009 H   0  0  0  0  0  0  0  0  0  0  0  0
  -10.1191   16.3067   22.4855 H   0  0  0  0  0  0  0  0  0  0  0  0
   -6.5232   14.0454   22.8067 H   0  0  0  0  0  0  0  0  0  0  0  0
   -6.1056   14.4381   20.3516 H   0  0  0  0  0  0  0  0  0  0  0  0
  -14.0392   10.9177   28.7176 H   0  0  0  0  0  0  0  0  0  0  0  0
   -6.7989   15.3792   18.3062 H   0  0  0  0  0  0  0  0  0  0  0  0
   -8.2609   16.2846   18.1999 H   0  0  0  0  0  0  0  0  0  0  0  0
  -13.4092   13.8209   33.2335 C   0  0  0  0  0  0  0  0  0  0  0  0
  -13.6800   13.0991   34.1990 O   0  0  0  0  0  0  0  0  0  0  0  0
  -14.4260   14.3036   32.4161 O   0  5  0  0  0  0  0  0  0  0  0  0
  -12.4247   11.8399   27.5521 C   0  0  0  0  0  0  0  0  0  0  0  0
  -11.9061   10.9333   27.3676 H   0  0  0  0  0  0  0  0  0  0  0  0
  -14.3146   12.9701   28.5627 C   0  0  0  0  0  0  0  0  0  0  0  0
  -15.2113   12.9619   29.1283 H   0  0  0  0  0  0  0  0  0  0  0  0
   -5.9801   19.1793   25.0541 N   0  3  0  0  0  0  0  0  0  0  0  0
   -5.5471   19.8725   25.6798 H   0  0  0  0  0  0  0  0  0  0  0  0
   -6.7190   19.6305   24.4979 H   0  0  0  0  0  0  0  0  0  0  0  0
   -5.2654   18.7887   24.4254 H   0  0  0  0  0  0  0  0  0  0  0  0
   -9.0322   16.1063   20.7291 C   0  0  0  0  0  0  0  0  0  0  0  0
   -9.7221   16.6716   20.1551 H   0  0  0  0  0  0  0  0  0  0  0  0
  1  7  2  0  0  0  0
  1  8  2  0  0  0  0
  1 10  1  0  0  0  0
  1 26  1  0  0  0  0
  2 13  1  0  0  0  0
  2 16  1  0  0  0  0
  3 13  1  0  0  0  0
  3 17  1  0  0  0  0
  4 14  1  0  0  0  0
  4 20  1  0  0  0  0
  5 19  1  0  0  0  0
  5 53  1  0  0  0  0
  6 20  2  0  0  0  0
  9 18  1  0  0  0  0
  9 20  1  0  0  0  0
  9 47  1  0  0  0  0
 10 21  1  0  0  0  0
 10 23  1  0  0  0  0
 11 34  1  0  0  0  0
 11 63  1  0  0  0  0
 11 64  1  0  0  0  0
 12 13  1  0  0  0  0
 12 14  1  0  0  0  0
 12 15  1  0  0  0  0
 12 35  1  0  0  0  0
 13 36  1  0  0  0  0
 14 16  1  0  0  0  0
 14 37  1  0  0  0  0
 15 17  1  0  0  0  0
 15 38  1  0  0  0  0
 15 39  1  0  0  0  0
 16 40  1  0  0  0  0
 16 41  1  0  0  0  0
 17 42  1  0  0  0  0
 17 65  1  0  0  0  0
 18 19  1  0  0  0  0
 18 22  1  0  0  0  0
 18 43  1  0  0  0  0
 19 21  1  0  0  0  0
 19 44  1  0  0  0  0
 21 45  1  0  0  0  0
 21 46  1  0  0  0  0
 22 25  1  0  0  0  0
 22 48  1  0  0  0  0
 22 49  1  0  0  0  0
 23 24  1  0  0  0  0
 23 50  1  0  0  0  0
 23 51  1  0  0  0  0
 24 27  1  0  0  0  0
 24 52  1  0  0  0  0
 24 72  1  0  0  0  0
 25 28  2  0  0  0  0
 25 29  1  0  0  0  0
 26 30  1  0  0  0  0
 26 31  2  0  0  0  0
 27 54  1  0  0  0  0
 27 55  1  0  0  0  0
 27 56  1  0  0  0  0
 28 57  1  0  0  0  0
 28 70  1  0  0  0  0
 29 58  1  0  0  0  0
 29 68  2  0  0  0  0
 30 59  1  0  0  0  0
 30 76  2  0  0  0  0
 31 33  1  0  0  0  0
 31 60  1  0  0  0  0
 32 62  1  0  0  0  0
 32 68  1  0  0  0  0
 32 70  2  0  0  0  0
 33 34  2  0  0  0  0
 33 61  1  0  0  0  0
 34 76  1  0  0  0  0
 65 66  2  0  0  0  0
 65 67  1  0  0  0  0
 68 69  1  0  0  0  0
 70 71  1  0  0  0  0
 72 73  1  0  0  0  0
 72 74  1  0  0  0  0
 72 75  1  0  0  0  0
 76 77  1  0  0  0  0
M  CHG  1  67  -1
M  CHG  1  72   1
M  END
> <Clean Energy>
107.886

> <Gold.Version>
5.6.1

> <Gold.Id.Protein>
ID|ID_protein|mol2

> <Gold.Goldscore.Fitness>
98.5154

> <Gold.Goldscore.Internal.Vdw>
-5.1894

> <Gold.Goldscore.Internal.Torsion>
-12.1223

> <Gold.Goldscore.External.Vdw>
64.3059

> <Gold.Goldscore.Internal.HBond>
0.0000

> <Gold.Goldscore.External.HBond>
18.3095

> <Gold.Goldscore.Internal.Correction>
-9.0970

> <Gold.Goldscore.Reference.RMSD>
7.5775

> <Gold.Goldscore.Hbonds>
donor molecule, donor type, donor heavy atom, donor atom, acceptor molecule, acceptor atom, score
      P1  H  1141  2124       L1     8  0.03
      P1  H   381  2001       L1     8  0.02
      P1  H   976  2166       L1     3  0.07
      P1  H    73  2240       L1    67  0.64
      P1  H   984  2167       L1     3  0.31
      L1  H     5    53       P1   958  0.99
      L1  H     9    47       P1   970  0.02
      L1  H    72    74       P1   210  0.84

> <Gold.Goldscore.Internal.Vdw.Weighted>
-5.1894

> <Gold.Goldscore.Internal.Torsion.Weighted>
-12.1223

> <Gold.Goldscore.External.Vdw.Weighted>
88.4207

> <Gold.Goldscore.Internal.HBond.Weighted>
0.0000

> <Gold.Goldscore.External.HBond.Weighted>
18.3095

> <Gold.Goldscore.Internal.Correction.Weighted>
-9.0970

> <Gold.Reference.RMSD>
7.5775

> <Gold.Protein.RotatedTorsions>
[ 1648  237  236  233 ] final  -18.89 input   60.00 | X-H torsion
[ 1672  356  355  354 ] final   72.87 input   60.00 | X-H torsion
[ 1841  613  612  609 ] final   61.16 input   60.00 | X-H torsion
[ 3049 1373 1372 1369 ] final   77.42 input   60.00 | X-H torsion
[ 1557  205  204  201 ] final  -49.82 input   60.00 | X-H torsion
[ 2168  965  964  961 ] final    9.74 input   60.00 | X-H torsion
[ 2192  997  996  993 ] final  -56.61 input   60.00 | X-H torsion
[ 2139 1116 1115 1114 ] final -152.61 input   60.00 | X-H torsion

> <Gold.Protein.ActiveResidues>
 LEU5    ARG8    PRO9    LEU10   ALA22   LEU23   LEU24   ASP25   THR26   GLY27  
 ALA28   ASP29   ASP30   THR31   VAL32   LEU33   GLU34   LYS45   MET46   ILE47  
 GLY48   GLY49   ILE50   GLY51   GLY52   PHE53   ILE54   VAL56   GLN58   THR74  
 VAL75   LEU76   VAL77   PRO79   THR80   PRO81   VAL82   ASN83   ILE84   ILE85  
 GLY86   ARG87   ASN88   LEU89   LEU90   LEU97   ARG8    PRO9    LEU10   ALA22  
 LEU23   LEU24   ASP25   THR26   GLY27   ALA28   ASP29   ASP30   THR31   VAL32  
 LEU33   GLU34   LYS45   MET46   ILE47   GLY48   GLY49   ILE50   GLY51   GLY52  
 PHE53   ILE54   VAL56   THR74   VAL75   LEU76   PRO79   THR80   PRO81   VAL82  
 ASN83   ILE84   ILE85   GLY86   ARG87   ASN88   LEU89   LEU90   LEU97  

> <Gold.Protein.RotatedAtoms>
  -12.9157   24.1477   26.7731 H   0  0  0  0  0  0  0  0  0  0  0  0  # atno 1557 bound_to 205 
  -15.1602   18.8794   17.2654 H   0  0  0  0  0  0  0  0  0  0  0  0  # atno 1648 bound_to 237 
   -4.8259   15.3560   11.6458 H   0  0  0  0  0  0  0  0  0  0  0  0  # atno 1672 bound_to 356 
   -4.1420   15.2362   13.1509 H   0  0  0  0  0  0  0  0  0  0  0  0  # atno 1673 bound_to 356 
   -3.9334   14.0179   12.0465 H   0  0  0  0  0  0  0  0  0  0  0  0  # atno 1674 bound_to 356 
  -12.7076   10.3961   23.3845 H   0  0  0  0  0  0  0  0  0  0  0  0  # atno 1841 bound_to 613 
  -10.9427   13.1260   40.3983 H   0  0  0  0  0  0  0  0  0  0  0  0  # atno 2139 bound_to 1116
   -9.4117   13.7591   40.4449 H   0  0  0  0  0  0  0  0  0  0  0  0  # atno 2140 bound_to 1116
   -9.8366   12.7060   39.2376 H   0  0  0  0  0  0  0  0  0  0  0  0  # atno 2141 bound_to 1116
  -14.7473   22.3669   26.8836 H   0  0  0  0  0  0  0  0  0  0  0  0  # atno 2168 bound_to 965 
   -8.3384   22.9717   36.0285 H   0  0  0  0  0  0  0  0  0  0  0  0  # atno 2192 bound_to 997 
   -2.8798   16.2437   30.2115 H   0  0  0  0  0  0  0  0  0  0  0  0  # atno 3049 bound_to 1373
  -16.5484   18.8376   16.4173 LP  0  0  0  0  0  0  0  0  0  0  0  0  # atno 3161 bound_to 237 
  -15.1512   19.2544   15.6819 LP  0  0  0  0  0  0  0  0  0  0  0  0  # atno 3162 bound_to 237 
  -14.2779    9.9696   23.4070 LP  0  0  0  0  0  0  0  0  0  0  0  0  # atno 3183 bound_to 613 
  -13.7810   11.2175   22.4784 LP  0  0  0  0  0  0  0  0  0  0  0  0  # atno 3184 bound_to 613 
   -1.5458   17.1053   29.8566 LP  0  0  0  0  0  0  0  0  0  0  0  0  # atno 3221 bound_to 1373
   -2.6434   17.6926   30.9134 LP  0  0  0  0  0  0  0  0  0  0  0  0  # atno 3222 bound_to 1373
  -12.6451   25.7365   26.9980 LP  0  0  0  0  0  0  0  0  0  0  0  0  # atno 3235 bound_to 205 
  -11.4214   24.7523   26.5504 LP  0  0  0  0  0  0  0  0  0  0  0  0  # atno 3236 bound_to 205 
  -14.9603   23.9061   26.4001 LP  0  0  0  0  0  0  0  0  0  0  0  0  # atno 3271 bound_to 965 
  -16.2516   22.9331   26.6296 LP  0  0  0  0  0  0  0  0  0  0  0  0  # atno 3272 bound_to 965 
   -8.2482   23.6524   37.5038 LP  0  0  0  0  0  0  0  0  0  0  0  0  # atno 3287 bound_to 997 
   -9.2384   22.3792   37.2479 LP  0  0  0  0  0  0  0  0  0  0  0  0  # atno 3288 bound_to 997 

$$$$
