dana5|M12|mol|1|dock1
  -GOLD-   1 31812193D 1   1.00000     0.00000

 86 89  0  0  0  0  0  0  0  0  3 V2000
   -8.0372   14.6635   24.4126 S   0  0  0  0  0  0  0  0  0  0  0  0
   -9.0713   16.4487   32.9451 O   0  0  0  0  0  0  0  0  0  0  0  0
  -11.4996   15.6744   32.9503 O   0  0  0  0  0  0  0  0  0  0  0  0
  -10.2113   15.0862   30.8035 O   0  0  0  0  0  0  0  0  0  0  0  0
  -10.7781   18.1444   26.5380 O   0  0  0  0  0  0  0  0  0  0  0  0
   -8.6310   15.0317   29.1558 O   0  0  0  0  0  0  0  0  0  0  0  0
   -9.2926   13.8880   24.7639 O   0  0  0  0  0  0  0  0  0  0  0  0
   -6.8247   13.7687   24.5814 O   0  0  0  0  0  0  0  0  0  0  0  0
  -10.7136   15.8235   28.6275 N   0  0  0  0  0  0  0  0  0  0  0  0
   -7.8291   16.0585   25.4983 N   0  0  0  0  0  0  0  0  0  0  0  0
   -8.5431   16.6029   18.7576 N   0  0  0  0  0  0  0  0  0  0  0  0
   -9.6888   14.2036   33.1034 C   0  0  2  0  0  0  0  0  0  0  0  0
  -10.1126   15.5544   33.5381 C   0  0  1  0  0  0  0  0  0  0  0  0
   -9.2352   14.4766   31.6475 C   0  0  2  0  0  0  0  0  0  0  0  0
  -10.9274   13.4022   33.4997 C   0  0  0  0  0  0  0  0  0  0  0  0
   -8.2197   15.5216   32.1148 C   0  0  0  0  0  0  0  0  0  0  0  0
  -11.9592   14.2520   32.7659 C   0  0  1  0  0  0  0  0  0  0  0  0
  -10.4699   15.8122   27.1985 C   0  0  2  0  0  0  0  0  0  0  0  0
   -9.7808   17.1456   26.7350 C   0  0  1  0  0  0  0  0  0  0  0  0
   -9.7595   15.3716   29.5310 C   0  0  0  0  0  0  0  0  0  0  0  0
   -9.0206   16.9713   25.3870 C   0  0  0  0  0  0  0  0  0  0  0  0
  -11.8546   15.6568   26.4672 C   0  0  0  0  0  0  0  0  0  0  0  0
   -6.5698   16.7762   25.1046 C   0  0  0  0  0  0  0  0  0  0  0  0
   -6.0987   17.8276   26.1453 C   0  0  1  0  0  0  0  0  0  0  0  0
  -12.5219   14.4038   26.9463 C   0  0  0  0  0  0  0  0  0  0  0  0
   -8.1427   15.2134   22.7140 C   0  0  0  0  0  0  0  0  0  0  0  0
   -4.9100   17.2683   26.9440 C   0  0  0  0  0  0  0  0  0  0  0  0
  -13.6263   14.4699   27.6853 C   0  0  0  0  0  0  0  0  0  0  0  0
  -11.9657   13.1007   26.5713 C   0  0  0  0  0  0  0  0  0  0  0  0
   -6.9572   15.7039   22.0141 C   0  0  0  0  0  0  0  0  0  0  0  0
   -9.3199   15.1980   22.0956 C   0  0  0  0  0  0  0  0  0  0  0  0
  -13.7858   12.0535   27.7725 C   0  0  0  0  0  0  0  0  0  0  0  0
   -9.4357   15.6777   20.7251 C   0  0  0  0  0  0  0  0  0  0  0  0
   -8.3702   16.1446   20.0800 C   0  0  0  0  0  0  0  0  0  0  0  0
   -8.7852   13.8527   33.6187 H   0  0  0  0  0  0  0  0  0  0  0  0
  -10.2148   15.5773   34.6313 H   0  0  0  0  0  0  0  0  0  0  0  0
   -8.8200   13.5902   31.1464 H   0  0  0  0  0  0  0  0  0  0  0  0
  -11.0413   13.5110   34.5865 H   0  0  0  0  0  0  0  0  0  0  0  0
  -10.9514   12.3393   33.2203 H   0  0  0  0  0  0  0  0  0  0  0  0
   -7.6812   16.0281   31.3021 H   0  0  0  0  0  0  0  0  0  0  0  0
   -7.5036   15.0119   32.7744 H   0  0  0  0  0  0  0  0  0  0  0  0
  -11.8215   14.0417   31.7063 H   0  0  0  0  0  0  0  0  0  0  0  0
   -9.8420   14.9519   26.9297 H   0  0  0  0  0  0  0  0  0  0  0  0
   -9.0895   17.4681   27.5200 H   0  0  0  0  0  0  0  0  0  0  0  0
   -8.6939   17.9688   25.0881 H   0  0  0  0  0  0  0  0  0  0  0  0
   -9.6829   16.5681   24.6174 H   0  0  0  0  0  0  0  0  0  0  0  0
  -11.6072   16.0607   28.9748 H   0  0  0  0  0  0  0  0  0  0  0  0
  -12.4900   16.5184   26.6995 H   0  0  0  0  0  0  0  0  0  0  0  0
  -11.6444   15.5842   25.3909 H   0  0  0  0  0  0  0  0  0  0  0  0
   -6.7298   17.2748   24.1451 H   0  0  0  0  0  0  0  0  0  0  0  0
   -5.7686   16.0327   24.9990 H   0  0  0  0  0  0  0  0  0  0  0  0
   -6.9165   18.0801   26.8321 H   0  0  0  0  0  0  0  0  0  0  0  0
  -10.5374   18.9527   27.0550 H   0  0  0  0  0  0  0  0  0  0  0  0
   -4.0668   17.0817   26.2627 H   0  0  0  0  0  0  0  0  0  0  0  0
   -5.2063   16.3277   27.4292 H   0  0  0  0  0  0  0  0  0  0  0  0
   -4.6104   17.9984   27.7087 H   0  0  0  0  0  0  0  0  0  0  0  0
  -14.0321   15.4132   27.9499 H   0  0  0  0  0  0  0  0  0  0  0  0
  -11.0874   13.0516   25.9792 H   0  0  0  0  0  0  0  0  0  0  0  0
   -6.0263   15.7037   22.5186 H   0  0  0  0  0  0  0  0  0  0  0  0
  -10.1803   14.8488   22.6083 H   0  0  0  0  0  0  0  0  0  0  0  0
  -10.3786   15.6621   20.2406 H   0  0  0  0  0  0  0  0  0  0  0  0
  -14.2678   11.1619   28.0842 H   0  0  0  0  0  0  0  0  0  0  0  0
   -9.4465   16.5661   18.3454 H   0  0  0  0  0  0  0  0  0  0  0  0
   -7.7860   16.9572   18.2332 H   0  0  0  0  0  0  0  0  0  0  0  0
  -13.3969   13.9648   33.0571 C   0  0  0  0  0  0  0  0  0  0  0  0
  -13.7010   13.2378   34.0087 O   0  0  0  0  0  0  0  0  0  0  0  0
  -14.3896   14.4996   32.2425 O   0  5  0  0  0  0  0  0  0  0  0  0
  -12.5701   11.9816   26.9609 C   0  0  0  0  0  0  0  0  0  0  0  0
  -12.1718   11.0390   26.6823 H   0  0  0  0  0  0  0  0  0  0  0  0
  -14.2870   13.2381   28.1201 C   0  0  0  0  0  0  0  0  0  0  0  0
  -15.1683   13.2885   28.7073 H   0  0  0  0  0  0  0  0  0  0  0  0
   -5.6790   19.0361   25.4389 N   0  3  0  0  0  0  0  0  0  0  0  0
   -5.2720   19.7012   26.1104 H   0  0  0  0  0  0  0  0  0  0  0  0
   -6.4959   19.4641   24.9806 H   0  0  0  0  0  0  0  0  0  0  0  0
   -7.0466   16.1657   20.7631 C   0  0  0  0  0  0  0  0  0  0  0  0
   -5.8091   16.7088   20.0544 C   0  0  0  0  0  0  0  0  0  0  0  0
   -6.0935   17.5067   19.3625 H   0  0  0  0  0  0  0  0  0  0  0  0
   -5.1344   15.5747   19.2722 C   0  0  0  0  0  0  0  0  0  0  0  0
   -5.0406   14.6923   19.9208 H   0  0  0  0  0  0  0  0  0  0  0  0
   -4.1363   15.9010   18.9477 H   0  0  0  0  0  0  0  0  0  0  0  0
   -4.7690   17.2306   21.0756 C   0  0  0  0  0  0  0  0  0  0  0  0
   -4.0589   17.8973   20.5662 H   0  0  0  0  0  0  0  0  0  0  0  0
   -5.2772   17.7823   21.8796 H   0  0  0  0  0  0  0  0  0  0  0  0
   -4.2269   16.3786   21.5087 H   0  0  0  0  0  0  0  0  0  0  0  0
   -5.7424   15.3200   18.3934 H   0  0  0  0  0  0  0  0  0  0  0  0
   -4.9763   18.7891   24.7291 H   0  0  0  0  0  0  0  0  0  0  0  0
  1  7  2  0  0  0  0
  1  8  2  0  0  0  0
  1 10  1  0  0  0  0
  1 26  1  0  0  0  0
  2 13  1  0  0  0  0
  2 16  1  0  0  0  0
  3 13  1  0  0  0  0
  3 17  1  0  0  0  0
  4 14  1  0  0  0  0
  4 20  1  0  0  0  0
  5 19  1  0  0  0  0
  5 53  1  0  0  0  0
  6 20  2  0  0  0  0
  9 18  1  0  0  0  0
  9 20  1  0  0  0  0
  9 47  1  0  0  0  0
 10 21  1  0  0  0  0
 10 23  1  0  0  0  0
 11 34  1  0  0  0  0
 11 63  1  0  0  0  0
 11 64  1  0  0  0  0
 12 13  1  0  0  0  0
 12 14  1  0  0  0  0
 12 15  1  0  0  0  0
 12 35  1  0  0  0  0
 13 36  1  0  0  0  0
 14 16  1  0  0  0  0
 14 37  1  0  0  0  0
 15 17  1  0  0  0  0
 15 38  1  0  0  0  0
 15 39  1  0  0  0  0
 16 40  1  0  0  0  0
 16 41  1  0  0  0  0
 17 42  1  0  0  0  0
 17 65  1  0  0  0  0
 18 19  1  0  0  0  0
 18 22  1  0  0  0  0
 18 43  1  0  0  0  0
 19 21  1  0  0  0  0
 19 44  1  0  0  0  0
 21 45  1  0  0  0  0
 21 46  1  0  0  0  0
 22 25  1  0  0  0  0
 22 48  1  0  0  0  0
 22 49  1  0  0  0  0
 23 24  1  0  0  0  0
 23 50  1  0  0  0  0
 23 51  1  0  0  0  0
 24 27  1  0  0  0  0
 24 52  1  0  0  0  0
 24 72  1  0  0  0  0
 25 28  2  0  0  0  0
 25 29  1  0  0  0  0
 26 30  1  0  0  0  0
 26 31  2  0  0  0  0
 27 54  1  0  0  0  0
 27 55  1  0  0  0  0
 27 56  1  0  0  0  0
 28 57  1  0  0  0  0
 28 70  1  0  0  0  0
 29 58  1  0  0  0  0
 29 68  2  0  0  0  0
 30 59  1  0  0  0  0
 30 75  2  0  0  0  0
 31 33  1  0  0  0  0
 31 60  1  0  0  0  0
 32 62  1  0  0  0  0
 32 68  1  0  0  0  0
 32 70  2  0  0  0  0
 33 34  2  0  0  0  0
 33 61  1  0  0  0  0
 34 75  1  0  0  0  0
 65 66  2  0  0  0  0
 65 67  1  0  0  0  0
 68 69  1  0  0  0  0
 70 71  1  0  0  0  0
 72 73  1  0  0  0  0
 72 74  1  0  0  0  0
 72 86  1  0  0  0  0
 75 76  1  0  0  0  0
 76 77  1  0  0  0  0
 76 78  1  0  0  0  0
 76 81  1  0  0  0  0
 78 79  1  0  0  0  0
 78 80  1  0  0  0  0
 78 85  1  0  0  0  0
 81 82  1  0  0  0  0
 81 83  1  0  0  0  0
 81 84  1  0  0  0  0
M  CHG  1  67  -1
M  CHG  1  72   1
M  END
> <Clean Energy>
118.224

> <Gold.Version>
5.6.1

> <Gold.Id.Protein>
ID|ID_protein|mol2

> <Gold.Goldscore.Fitness>
99.5091

> <Gold.Goldscore.Internal.Vdw>
-12.2084

> <Gold.Goldscore.Internal.Torsion>
-14.7643

> <Gold.Goldscore.External.Vdw>
62.2729

> <Gold.Goldscore.Internal.HBond>
0.0000

> <Gold.Goldscore.External.HBond>
20.3025

> <Gold.Goldscore.Internal.Correction>
-20.5540

> <Gold.Goldscore.Reference.RMSD>
7.4924

> <Gold.Goldscore.Hbonds>
donor molecule, donor type, donor heavy atom, donor atom, acceptor molecule, acceptor atom, score
      P1  H   976  2166       L1     3  0.08
      P1  H    73  2240       L1    67  0.87
      P1  H   984  2167       L1     3  0.32
      L1  H     5    53       P1   958  0.52
      L1  H     5    53       P1   959  0.20
      L1  H     9    47       P1   970  0.04
      L1  H    11    63       P1   227  0.18
      L1  H    72    74       P1   210  1.00

> <Gold.Goldscore.Internal.Vdw.Weighted>
-12.2084

> <Gold.Goldscore.Internal.Torsion.Weighted>
-14.7643

> <Gold.Goldscore.External.Vdw.Weighted>
85.6253

> <Gold.Goldscore.Internal.HBond.Weighted>
0.0000

> <Gold.Goldscore.External.HBond.Weighted>
20.3025

> <Gold.Goldscore.Internal.Correction.Weighted>
-20.5540

> <Gold.Reference.RMSD>
7.4924

> <Gold.Protein.RotatedTorsions>
[ 1648  237  236  233 ] final  -54.95 input   60.00 | X-H torsion
[ 1672  356  355  354 ] final -152.35 input   60.00 | X-H torsion
[ 1841  613  612  609 ] final   44.79 input   60.00 | X-H torsion
[ 3049 1373 1372 1369 ] final   60.67 input   60.00 | X-H torsion
[ 1557  205  204  201 ] final   88.56 input   60.00 | X-H torsion
[ 2168  965  964  961 ] final  101.13 input   60.00 | X-H torsion
[ 2192  997  996  993 ] final -104.85 input   60.00 | X-H torsion
[ 2139 1116 1115 1114 ] final  -15.24 input   60.00 | X-H torsion

> <Gold.Protein.ActiveResidues>
 LEU5    ARG8    PRO9    LEU10   ALA22   LEU23   LEU24   ASP25   THR26   GLY27  
 ALA28   ASP29   ASP30   THR31   VAL32   LEU33   GLU34   LYS45   MET46   ILE47  
 GLY48   GLY49   ILE50   GLY51   GLY52   PHE53   ILE54   VAL56   GLN58   THR74  
 VAL75   LEU76   VAL77   PRO79   THR80   PRO81   VAL82   ASN83   ILE84   ILE85  
 GLY86   ARG87   ASN88   LEU89   LEU90   LEU97   ARG8    PRO9    LEU10   ALA22  
 LEU23   LEU24   ASP25   THR26   GLY27   ALA28   ASP29   ASP30   THR31   VAL32  
 LEU33   GLU34   LYS45   MET46   ILE47   GLY48   GLY49   ILE50   GLY51   GLY52  
 PHE53   ILE54   VAL56   THR74   VAL75   LEU76   PRO79   THR80   PRO81   VAL82  
 ASN83   ILE84   ILE85   GLY86   ARG87   ASN88   LEU89   LEU90   LEU97  

> <Gold.Protein.RotatedAtoms>
  -11.4246   25.0480   26.6012 H   0  0  0  0  0  0  0  0  0  0  0  0  # atno 1557 bound_to 205 
  -15.7196   18.7597   17.3585 H   0  0  0  0  0  0  0  0  0  0  0  0  # atno 1648 bound_to 237 
   -4.0158   15.0270   13.1812 H   0  0  0  0  0  0  0  0  0  0  0  0  # atno 1672 bound_to 356 
   -4.0463   14.0637   11.8327 H   0  0  0  0  0  0  0  0  0  0  0  0  # atno 1673 bound_to 356 
   -4.8392   15.5193   11.8294 H   0  0  0  0  0  0  0  0  0  0  0  0  # atno 1674 bound_to 356 
  -12.8235   10.1997   23.5226 H   0  0  0  0  0  0  0  0  0  0  0  0  # atno 1841 bound_to 613 
   -9.2508   13.6611   40.2258 H   0  0  0  0  0  0  0  0  0  0  0  0  # atno 2139 bound_to 1116
  -10.1109   12.6193   39.2656 H   0  0  0  0  0  0  0  0  0  0  0  0  # atno 2140 bound_to 1116
  -10.8295   13.3107   40.5895 H   0  0  0  0  0  0  0  0  0  0  0  0  # atno 2141 bound_to 1116
  -16.0723   22.5268   26.7654 H   0  0  0  0  0  0  0  0  0  0  0  0  # atno 2168 bound_to 965 
   -8.0045   23.5256   36.4373 H   0  0  0  0  0  0  0  0  0  0  0  0  # atno 2192 bound_to 997 
   -2.6763   16.1792   30.0418 H   0  0  0  0  0  0  0  0  0  0  0  0  # atno 3049 bound_to 1373
  -16.3682   18.9939   15.8846 LP  0  0  0  0  0  0  0  0  0  0  0  0  # atno 3161 bound_to 237 
  -14.7681   19.2186   16.1208 LP  0  0  0  0  0  0  0  0  0  0  0  0  # atno 3162 bound_to 237 
  -14.4255   10.1258   23.2461 LP  0  0  0  0  0  0  0  0  0  0  0  0  # atno 3183 bound_to 613 
  -13.5167   11.2591   22.5002 LP  0  0  0  0  0  0  0  0  0  0  0  0  # atno 3184 bound_to 613 
   -1.5401   17.3432   29.9937 LP  0  0  0  0  0  0  0  0  0  0  0  0  # atno 3221 bound_to 1373
   -2.8541   17.5197   30.9471 LP  0  0  0  0  0  0  0  0  0  0  0  0  # atno 3222 bound_to 1373
  -12.6665   24.0005   26.6939 LP  0  0  0  0  0  0  0  0  0  0  0  0  # atno 3235 bound_to 205 
  -12.9016   25.5816   27.0275 LP  0  0  0  0  0  0  0  0  0  0  0  0  # atno 3236 bound_to 205 
  -14.4563   22.7165   26.7896 LP  0  0  0  0  0  0  0  0  0  0  0  0  # atno 3271 bound_to 965 
  -15.4212   23.9616   26.3591 LP  0  0  0  0  0  0  0  0  0  0  0  0  # atno 3272 bound_to 965 
   -8.7562   23.1793   37.8384 LP  0  0  0  0  0  0  0  0  0  0  0  0  # atno 3287 bound_to 997 
   -9.0667   22.2944   36.5016 LP  0  0  0  0  0  0  0  0  0  0  0  0  # atno 3288 bound_to 997 

$$$$
