dana5|M13|mol|1|dock1
  -GOLD-   1 31813573D 1   1.00000     0.00000

 89 92  0  0  0  0  0  0  0  0  3 V2000
   -7.9718   14.5775   24.1778 S   0  0  0  0  0  0  0  0  0  0  0  0
   -9.0002   16.3493   33.0352 O   0  0  0  0  0  0  0  0  0  0  0  0
  -11.4290   15.5909   32.9958 O   0  0  0  0  0  0  0  0  0  0  0  0
  -10.1296   15.0921   30.8135 O   0  0  0  0  0  0  0  0  0  0  0  0
  -10.3820   18.1023   26.7441 O   0  0  0  0  0  0  0  0  0  0  0  0
   -8.5984   14.8379   29.1291 O   0  0  0  0  0  0  0  0  0  0  0  0
   -9.1309   13.7458   24.6929 O   0  0  0  0  0  0  0  0  0  0  0  0
   -6.6980   13.7565   24.2319 O   0  0  0  0  0  0  0  0  0  0  0  0
  -10.6268   15.7345   28.5790 N   0  0  0  0  0  0  0  0  0  0  0  0
   -7.7219   16.0193   25.1910 N   0  0  0  0  0  0  0  0  0  0  0  0
   -9.1967   16.3066   18.5667 N   0  0  0  0  0  0  0  0  0  0  0  0
   -9.6302   14.1023   33.0913 C   0  0  2  0  0  0  0  0  0  0  0  0
  -10.0477   15.4366   33.5829 C   0  0  1  0  0  0  0  0  0  0  0  0
   -9.1671   14.4337   31.6492 C   0  0  2  0  0  0  0  0  0  0  0  0
  -10.8707   13.2950   33.4500 C   0  0  0  0  0  0  0  0  0  0  0  0
   -8.1474   15.4529   32.1760 C   0  0  0  0  0  0  0  0  0  0  0  0
  -11.8941   14.1811   32.7502 C   0  0  1  0  0  0  0  0  0  0  0  0
  -10.3552   15.6980   27.1580 C   0  0  2  0  0  0  0  0  0  0  0  0
   -9.5370   16.9555   26.7067 C   0  0  1  0  0  0  0  0  0  0  0  0
   -9.7035   15.2503   29.5011 C   0  0  0  0  0  0  0  0  0  0  0  0
   -8.9957   16.8240   25.2561 C   0  0  0  0  0  0  0  0  0  0  0  0
  -11.7216   15.6643   26.3977 C   0  0  0  0  0  0  0  0  0  0  0  0
   -6.6096   16.8228   24.5893 C   0  0  0  0  0  0  0  0  0  0  0  0
   -6.0227   17.8919   25.5535 C   0  0  1  0  0  0  0  0  0  0  0  0
  -12.4785   14.4505   26.8305 C   0  0  0  0  0  0  0  0  0  0  0  0
   -8.2998   15.0589   22.4886 C   0  0  0  0  0  0  0  0  0  0  0  0
   -5.3681   17.1835   26.7577 C   0  0  0  0  0  0  0  0  0  0  0  0
  -13.5222   14.5706   27.6473 C   0  0  0  0  0  0  0  0  0  0  0  0
  -12.0796   13.1327   26.3372 C   0  0  0  0  0  0  0  0  0  0  0  0
   -7.2017   15.3073   21.5588 C   0  0  0  0  0  0  0  0  0  0  0  0
   -9.5581   15.2131   22.0866 C   0  0  0  0  0  0  0  0  0  0  0  0
  -13.9138   12.1822   27.5983 C   0  0  0  0  0  0  0  0  0  0  0  0
   -9.8473   15.6404   20.7246 C   0  0  0  0  0  0  0  0  0  0  0  0
   -8.8582   15.8862   19.8693 C   0  0  0  0  0  0  0  0  0  0  0  0
   -8.7310   13.7243   33.5950 H   0  0  0  0  0  0  0  0  0  0  0  0
  -10.1541   15.4123   34.6758 H   0  0  0  0  0  0  0  0  0  0  0  0
   -8.7501   13.5688   31.1142 H   0  0  0  0  0  0  0  0  0  0  0  0
  -10.9863   13.3598   34.5405 H   0  0  0  0  0  0  0  0  0  0  0  0
  -10.9005   12.2448   33.1276 H   0  0  0  0  0  0  0  0  0  0  0  0
   -7.5957   15.9910   31.3928 H   0  0  0  0  0  0  0  0  0  0  0  0
   -7.4421   14.9109   32.8206 H   0  0  0  0  0  0  0  0  0  0  0  0
  -11.7568   14.0174   31.6823 H   0  0  0  0  0  0  0  0  0  0  0  0
   -9.7972   14.7868   26.9047 H   0  0  0  0  0  0  0  0  0  0  0  0
   -8.7071   17.0891   27.4060 H   0  0  0  0  0  0  0  0  0  0  0  0
   -8.8147   17.8403   24.8970 H   0  0  0  0  0  0  0  0  0  0  0  0
   -9.7323   16.3429   24.6081 H   0  0  0  0  0  0  0  0  0  0  0  0
  -11.5097   16.0386   28.9076 H   0  0  0  0  0  0  0  0  0  0  0  0
  -12.2985   16.5651   26.6354 H   0  0  0  0  0  0  0  0  0  0  0  0
  -11.4903   15.5991   25.3250 H   0  0  0  0  0  0  0  0  0  0  0  0
   -6.9751   17.3172   23.6849 H   0  0  0  0  0  0  0  0  0  0  0  0
   -5.7959   16.1355   24.3242 H   0  0  0  0  0  0  0  0  0  0  0  0
   -6.8235   18.5486   25.9150 H   0  0  0  0  0  0  0  0  0  0  0  0
   -9.9080   18.8427   27.1980 H   0  0  0  0  0  0  0  0  0  0  0  0
   -4.9424   17.9360   27.4376 H   0  0  0  0  0  0  0  0  0  0  0  0
   -4.5710   16.5172   26.4006 H   0  0  0  0  0  0  0  0  0  0  0  0
   -6.1277   16.5955   27.2913 H   0  0  0  0  0  0  0  0  0  0  0  0
  -13.8126   15.5279   27.9993 H   0  0  0  0  0  0  0  0  0  0  0  0
  -11.2490   13.0417   25.6848 H   0  0  0  0  0  0  0  0  0  0  0  0
   -6.2040   15.1772   21.8927 H   0  0  0  0  0  0  0  0  0  0  0  0
  -10.3538   15.0392   22.7664 H   0  0  0  0  0  0  0  0  0  0  0  0
  -10.8535   15.7647   20.4147 H   0  0  0  0  0  0  0  0  0  0  0  0
  -14.4601   11.3211   27.8887 H   0  0  0  0  0  0  0  0  0  0  0  0
  -10.1548   16.4076   18.3229 H   0  0  0  0  0  0  0  0  0  0  0  0
   -8.5025   16.5039   17.8939 H   0  0  0  0  0  0  0  0  0  0  0  0
  -13.3321   13.8871   33.0342 C   0  0  0  0  0  0  0  0  0  0  0  0
  -13.6385   13.1836   34.0029 O   0  0  0  0  0  0  0  0  0  0  0  0
  -14.3226   14.3988   32.2029 O   0  5  0  0  0  0  0  0  0  0  0  0
  -12.7648   12.0514   26.7004 C   0  0  0  0  0  0  0  0  0  0  0  0
  -12.4790   11.0964   26.3392 H   0  0  0  0  0  0  0  0  0  0  0  0
  -14.2731   13.3825   28.0506 C   0  0  0  0  0  0  0  0  0  0  0  0
  -15.1057   13.4769   28.7003 H   0  0  0  0  0  0  0  0  0  0  0  0
   -7.4457   15.7120   20.3094 C   0  0  0  0  0  0  0  0  0  0  0  0
   -6.2874   15.9968   19.3616 C   0  0  0  0  0  0  0  0  0  0  0  0
   -6.5498   15.6949   18.3441 H   0  0  0  0  0  0  0  0  0  0  0  0
   -5.0328   15.2364   19.8227 C   0  0  0  0  0  0  0  0  0  0  0  0
   -4.5962   15.7482   20.6916 H   0  0  0  0  0  0  0  0  0  0  0  0
   -5.3125   14.2109   20.1017 H   0  0  0  0  0  0  0  0  0  0  0  0
   -5.9328   17.5003   19.3925 C   0  0  0  0  0  0  0  0  0  0  0  0
   -5.6126   17.7787   20.4066 H   0  0  0  0  0  0  0  0  0  0  0  0
   -5.1195   17.7074   18.6815 H   0  0  0  0  0  0  0  0  0  0  0  0
   -6.8179   18.0880   19.1124 H   0  0  0  0  0  0  0  0  0  0  0  0
   -4.2976   15.2046   19.0067 H   0  0  0  0  0  0  0  0  0  0  0  0
   -4.9707   18.7685   24.8008 C   0  0  0  0  0  0  0  0  0  0  0  0
   -4.5572   19.5018   25.5076 H   0  0  0  0  0  0  0  0  0  0  0  0
   -4.1622   18.1155   24.4434 H   0  0  0  0  0  0  0  0  0  0  0  0
   -5.5349   19.5061   23.6321 N   0  3  0  0  0  0  0  0  0  0  0  0
   -5.5274   18.8816   22.8147 H   0  0  0  0  0  0  0  0  0  0  0  0
   -4.9669   20.3338   23.4190 H   0  0  0  0  0  0  0  0  0  0  0  0
   -6.5023   19.7926   23.8192 H   0  0  0  0  0  0  0  0  0  0  0  0
  1  7  2  0  0  0  0
  1  8  2  0  0  0  0
  1 10  1  0  0  0  0
  1 26  1  0  0  0  0
  2 13  1  0  0  0  0
  2 16  1  0  0  0  0
  3 13  1  0  0  0  0
  3 17  1  0  0  0  0
  4 14  1  0  0  0  0
  4 20  1  0  0  0  0
  5 19  1  0  0  0  0
  5 53  1  0  0  0  0
  6 20  2  0  0  0  0
  9 18  1  0  0  0  0
  9 20  1  0  0  0  0
  9 47  1  0  0  0  0
 10 21  1  0  0  0  0
 10 23  1  0  0  0  0
 11 34  1  0  0  0  0
 11 63  1  0  0  0  0
 11 64  1  0  0  0  0
 12 13  1  0  0  0  0
 12 14  1  0  0  0  0
 12 15  1  0  0  0  0
 12 35  1  0  0  0  0
 13 36  1  0  0  0  0
 14 16  1  0  0  0  0
 14 37  1  0  0  0  0
 15 17  1  0  0  0  0
 15 38  1  0  0  0  0
 15 39  1  0  0  0  0
 16 40  1  0  0  0  0
 16 41  1  0  0  0  0
 17 42  1  0  0  0  0
 17 65  1  0  0  0  0
 18 19  1  0  0  0  0
 18 22  1  0  0  0  0
 18 43  1  0  0  0  0
 19 21  1  0  0  0  0
 19 44  1  0  0  0  0
 21 45  1  0  0  0  0
 21 46  1  0  0  0  0
 22 25  1  0  0  0  0
 22 48  1  0  0  0  0
 22 49  1  0  0  0  0
 23 24  1  0  0  0  0
 23 50  1  0  0  0  0
 23 51  1  0  0  0  0
 24 27  1  0  0  0  0
 24 52  1  0  0  0  0
 24 83  1  0  0  0  0
 25 28  2  0  0  0  0
 25 29  1  0  0  0  0
 26 30  1  0  0  0  0
 26 31  2  0  0  0  0
 27 54  1  0  0  0  0
 27 55  1  0  0  0  0
 27 56  1  0  0  0  0
 28 57  1  0  0  0  0
 28 70  1  0  0  0  0
 29 58  1  0  0  0  0
 29 68  2  0  0  0  0
 30 59  1  0  0  0  0
 30 72  2  0  0  0  0
 31 33  1  0  0  0  0
 31 60  1  0  0  0  0
 32 62  1  0  0  0  0
 32 68  1  0  0  0  0
 32 70  2  0  0  0  0
 33 34  2  0  0  0  0
 33 61  1  0  0  0  0
 34 72  1  0  0  0  0
 65 66  2  0  0  0  0
 65 67  1  0  0  0  0
 68 69  1  0  0  0  0
 70 71  1  0  0  0  0
 72 73  1  0  0  0  0
 73 74  1  0  0  0  0
 73 75  1  0  0  0  0
 73 78  1  0  0  0  0
 75 76  1  0  0  0  0
 75 77  1  0  0  0  0
 75 82  1  0  0  0  0
 78 79  1  0  0  0  0
 78 80  1  0  0  0  0
 78 81  1  0  0  0  0
 83 84  1  0  0  0  0
 83 85  1  0  0  0  0
 83 86  1  0  0  0  0
 86 87  1  0  0  0  0
 86 88  1  0  0  0  0
 86 89  1  0  0  0  0
M  CHG  1  67  -1
M  CHG  1  86   1
M  END
> <Clean Energy>
116.372

> <Gold.Version>
5.6.1

> <Gold.Id.Protein>
ID|ID_protein|mol2

> <Gold.Goldscore.Fitness>
100.8099

> <Gold.Goldscore.Internal.Vdw>
-14.4011

> <Gold.Goldscore.Internal.Torsion>
-12.8718

> <Gold.Goldscore.External.Vdw>
60.9499

> <Gold.Goldscore.Internal.HBond>
0.0000

> <Gold.Goldscore.External.HBond>
24.1952

> <Gold.Goldscore.Internal.Correction>
-20.0814

> <Gold.Goldscore.Reference.RMSD>
0.8989

> <Gold.Goldscore.Hbonds>
donor molecule, donor type, donor heavy atom, donor atom, acceptor molecule, acceptor atom, score
      P1  H   976  2166       L1     3  0.07
      P1  H    73  2240       L1    67  0.87
      P1  H   984  2167       L1     3  0.32
      L1  H     5    53       P1   959  1.00
      L1  H     9    47       P1   970  0.06
      L1  H    11    63       P1   227  0.55
      L1  H    11    64       P1   231  0.25
      L1  H    86    89       P1   210  1.00

> <Gold.Goldscore.Internal.Vdw.Weighted>
-14.4011

> <Gold.Goldscore.Internal.Torsion.Weighted>
-12.8718

> <Gold.Goldscore.External.Vdw.Weighted>
83.8061

> <Gold.Goldscore.Internal.HBond.Weighted>
0.0000

> <Gold.Goldscore.External.HBond.Weighted>
24.1952

> <Gold.Goldscore.Internal.Correction.Weighted>
-20.0814

> <Gold.Reference.RMSD>
0.8989

> <Gold.Protein.RotatedTorsions>
[ 1648  237  236  233 ] final  -18.42 input   60.00 | X-H torsion
[ 1672  356  355  354 ] final -110.61 input   60.00 | X-H torsion
[ 1841  613  612  609 ] final   69.30 input   60.00 | X-H torsion
[ 3049 1373 1372 1369 ] final  112.49 input   60.00 | X-H torsion
[ 1557  205  204  201 ] final    7.99 input   60.00 | X-H torsion
[ 2168  965  964  961 ] final  162.25 input   60.00 | X-H torsion
[ 2192  997  996  993 ] final  168.23 input   60.00 | X-H torsion
[ 2139 1116 1115 1114 ] final   85.13 input   60.00 | X-H torsion

> <Gold.Protein.ActiveResidues>
 LEU5    ARG8    PRO9    LEU10   ALA22   LEU23   LEU24   ASP25   THR26   GLY27  
 ALA28   ASP29   ASP30   THR31   VAL32   LEU33   GLU34   LYS45   MET46   ILE47  
 GLY48   GLY49   ILE50   GLY51   GLY52   PHE53   ILE54   VAL56   GLN58   THR74  
 VAL75   LEU76   VAL77   PRO79   THR80   PRO81   VAL82   ASN83   ILE84   ILE85  
 GLY86   ARG87   ASN88   LEU89   LEU90   LEU97   ARG8    PRO9    LEU10   ALA22  
 LEU23   LEU24   ASP25   THR26   GLY27   ALA28   ASP29   ASP30   THR31   VAL32  
 LEU33   GLU34   LYS45   MET46   ILE47   GLY48   GLY49   ILE50   GLY51   GLY52  
 PHE53   ILE54   VAL56   THR74   VAL75   LEU76   PRO79   THR80   PRO81   VAL82  
 ASN83   ILE84   ILE85   GLY86   ARG87   ASN88   LEU89   LEU90   LEU97  

> <Gold.Protein.RotatedAtoms>
  -12.0478   24.0111   26.5556 H   0  0  0  0  0  0  0  0  0  0  0  0  # atno 1557 bound_to 205 
  -15.1536   18.8814   17.2618 H   0  0  0  0  0  0  0  0  0  0  0  0  # atno 1648 bound_to 237 
   -3.7833   14.4277   12.9540 H   0  0  0  0  0  0  0  0  0  0  0  0  # atno 1672 bound_to 356 
   -4.4273   14.4576   11.4269 H   0  0  0  0  0  0  0  0  0  0  0  0  # atno 1673 bound_to 356 
   -4.6908   15.7248   12.4624 H   0  0  0  0  0  0  0  0  0  0  0  0  # atno 1674 bound_to 356 
  -12.6762   10.4987   23.3062 H   0  0  0  0  0  0  0  0  0  0  0  0  # atno 1841 bound_to 613 
   -9.8020   12.7208   39.2393 H   0  0  0  0  0  0  0  0  0  0  0  0  # atno 2139 bound_to 1116
  -10.9518   13.1021   40.3706 H   0  0  0  0  0  0  0  0  0  0  0  0  # atno 2140 bound_to 1116
   -9.4374   13.7683   40.4711 H   0  0  0  0  0  0  0  0  0  0  0  0  # atno 2141 bound_to 1116
  -16.1669   23.4314   26.4844 H   0  0  0  0  0  0  0  0  0  0  0  0  # atno 2168 bound_to 965 
   -8.3965   23.5349   37.6641 H   0  0  0  0  0  0  0  0  0  0  0  0  # atno 2192 bound_to 997 
   -3.1464   16.5765   30.5807 H   0  0  0  0  0  0  0  0  0  0  0  0  # atno 3049 bound_to 1373
  -16.5484   18.8358   16.4249 LP  0  0  0  0  0  0  0  0  0  0  0  0  # atno 3161 bound_to 237 
  -15.1579   19.2541   15.6779 LP  0  0  0  0  0  0  0  0  0  0  0  0  # atno 3162 bound_to 237 
  -14.1827    9.9081   23.4782 LP  0  0  0  0  0  0  0  0  0  0  0  0  # atno 3183 bound_to 613 
  -13.9079   11.1757   22.4861 LP  0  0  0  0  0  0  0  0  0  0  0  0  # atno 3184 bound_to 613 
   -1.7732   16.6064   29.7081 LP  0  0  0  0  0  0  0  0  0  0  0  0  # atno 3221 bound_to 1373
   -2.1475   17.8564   30.6900 LP  0  0  0  0  0  0  0  0  0  0  0  0  # atno 3222 bound_to 1373
  -13.2291   25.0368   27.0035 LP  0  0  0  0  0  0  0  0  0  0  0  0  # atno 3235 bound_to 205 
  -11.7113   25.5895   26.7639 LP  0  0  0  0  0  0  0  0  0  0  0  0  # atno 3236 bound_to 205 
  -15.2338   22.1699   26.9157 LP  0  0  0  0  0  0  0  0  0  0  0  0  # atno 3271 bound_to 965 
  -14.5484   23.5972   26.5160 LP  0  0  0  0  0  0  0  0  0  0  0  0  # atno 3272 bound_to 965 
   -9.2300   22.2983   37.0129 LP  0  0  0  0  0  0  0  0  0  0  0  0  # atno 3287 bound_to 997 
   -8.1981   23.1661   36.0916 LP  0  0  0  0  0  0  0  0  0  0  0  0  # atno 3288 bound_to 997 

$$$$
