dana5|M8|mol|1|dock1
  -GOLD-   1 318 7273D 1   1.00000     0.00000

 76 79  0  0  0  0  0  0  0  0  3 V2000
   -8.5197   14.9951   24.1901 S   0  0  0  0  0  0  0  0  0  0  0  0
   -8.9666   16.3792   32.8746 O   0  0  0  0  0  0  0  0  0  0  0  0
  -11.4066   15.6446   32.9025 O   0  0  0  0  0  0  0  0  0  0  0  0
  -10.2087   15.2268   30.6649 O   0  0  0  0  0  0  0  0  0  0  0  0
  -11.2446   18.2982   26.5411 O   0  0  0  0  0  0  0  0  0  0  0  0
   -8.7406   15.1653   28.9173 O   0  0  0  0  0  0  0  0  0  0  0  0
   -9.9531   14.5155   24.3151 O   0  0  0  0  0  0  0  0  0  0  0  0
   -7.5848   13.9513   24.7697 O   0  0  0  0  0  0  0  0  0  0  0  0
  -10.8430   15.9850   28.5295 N   0  0  0  0  0  0  0  0  0  0  0  0
   -8.2759   16.4951   25.1065 N   0  0  0  0  0  0  0  0  0  0  0  0
   -7.2026   15.7515   18.4113 N   0  0  0  0  0  0  0  0  0  0  0  0
   -9.6192   14.1384   32.8581 C   0  0  2  0  0  0  0  0  0  0  0  0
  -10.0023   15.4517   33.4250 C   0  0  1  0  0  0  0  0  0  0  0  0
   -9.2132   14.5319   31.4158 C   0  0  2  0  0  0  0  0  0  0  0  0
  -10.8573   13.3239   33.2286 C   0  0  0  0  0  0  0  0  0  0  0  0
   -8.1626   15.5164   31.9352 C   0  0  0  0  0  0  0  0  0  0  0  0
  -11.8991   14.2514   32.6112 C   0  0  1  0  0  0  0  0  0  0  0  0
  -10.6859   15.9869   27.0896 C   0  0  2  0  0  0  0  0  0  0  0  0
  -10.1578   17.3774   26.5871 C   0  0  1  0  0  0  0  0  0  0  0  0
   -9.8387   15.5142   29.3673 C   0  0  0  0  0  0  0  0  0  0  0  0
   -9.5531   17.2912   25.1550 C   0  0  0  0  0  0  0  0  0  0  0  0
  -12.0888   15.6888   26.4431 C   0  0  0  0  0  0  0  0  0  0  0  0
   -7.1867   17.2759   24.4354 C   0  0  0  0  0  0  0  0  0  0  0  0
   -6.5746   18.3824   25.3415 C   0  0  1  0  0  0  0  0  0  0  0  0
  -12.5925   14.3761   26.9620 C   0  0  0  0  0  0  0  0  0  0  0  0
   -8.1332   15.2412   22.4635 C   0  0  0  0  0  0  0  0  0  0  0  0
   -6.0466   17.7286   26.6308 C   0  0  0  0  0  0  0  0  0  0  0  0
  -12.0014   13.2393   26.6036 C   0  0  0  0  0  0  0  0  0  0  0  0
  -13.7248   14.3537   27.8931 C   0  0  0  0  0  0  0  0  0  0  0  0
   -9.0323   16.0072   21.5919 C   0  0  0  0  0  0  0  0  0  0  0  0
   -7.0147   14.7196   21.9616 C   0  0  0  0  0  0  0  0  0  0  0  0
  -13.5057   11.9469   27.9967 C   0  0  0  0  0  0  0  0  0  0  0  0
   -6.6895   14.8986   20.5489 C   0  0  0  0  0  0  0  0  0  0  0  0
   -7.5109   15.5864   19.7588 C   0  0  0  0  0  0  0  0  0  0  0  0
   -8.7042   13.7298   33.3065 H   0  0  0  0  0  0  0  0  0  0  0  0
  -10.0646   15.3794   34.5192 H   0  0  0  0  0  0  0  0  0  0  0  0
   -8.8320   13.6872   30.8241 H   0  0  0  0  0  0  0  0  0  0  0  0
  -10.9300   13.3381   34.3242 H   0  0  0  0  0  0  0  0  0  0  0  0
  -10.9112   12.2904   32.8579 H   0  0  0  0  0  0  0  0  0  0  0  0
   -7.6443   16.0846   31.1507 H   0  0  0  0  0  0  0  0  0  0  0  0
   -7.4329   14.9398   32.5204 H   0  0  0  0  0  0  0  0  0  0  0  0
  -11.8034   14.1331   31.5331 H   0  0  0  0  0  0  0  0  0  0  0  0
   -9.9918   15.1911   26.7868 H   0  0  0  0  0  0  0  0  0  0  0  0
   -9.4024   17.7368   27.2926 H   0  0  0  0  0  0  0  0  0  0  0  0
   -9.3579   18.3180   24.8406 H   0  0  0  0  0  0  0  0  0  0  0  0
  -10.2637   16.8342   24.4615 H   0  0  0  0  0  0  0  0  0  0  0  0
  -11.7108   16.2296   28.9332 H   0  0  0  0  0  0  0  0  0  0  0  0
  -12.7929   16.4821   26.7169 H   0  0  0  0  0  0  0  0  0  0  0  0
  -11.9389   15.6338   25.3556 H   0  0  0  0  0  0  0  0  0  0  0  0
   -7.5858   17.7338   23.5242 H   0  0  0  0  0  0  0  0  0  0  0  0
   -6.3792   16.5808   24.1696 H   0  0  0  0  0  0  0  0  0  0  0  0
   -7.3068   19.1487   25.6293 H   0  0  0  0  0  0  0  0  0  0  0  0
  -11.0448   19.0690   27.1277 H   0  0  0  0  0  0  0  0  0  0  0  0
   -5.2718   16.9904   26.3762 H   0  0  0  0  0  0  0  0  0  0  0  0
   -6.8743   17.2281   27.1525 H   0  0  0  0  0  0  0  0  0  0  0  0
   -5.6165   18.5033   27.2810 H   0  0  0  0  0  0  0  0  0  0  0  0
  -11.1777   13.2570   25.9362 H   0  0  0  0  0  0  0  0  0  0  0  0
  -14.1915   15.2618   28.1797 H   0  0  0  0  0  0  0  0  0  0  0  0
   -9.9221   16.4274   21.9876 H   0  0  0  0  0  0  0  0  0  0  0  0
   -6.3632   14.1644   22.5889 H   0  0  0  0  0  0  0  0  0  0  0  0
   -5.8012   14.4777   20.1512 H   0  0  0  0  0  0  0  0  0  0  0  0
  -13.8495   11.0245   28.3911 H   0  0  0  0  0  0  0  0  0  0  0  0
   -6.3693   15.3557   18.0403 H   0  0  0  0  0  0  0  0  0  0  0  0
   -7.8177   16.2627   17.8204 H   0  0  0  0  0  0  0  0  0  0  0  0
  -13.3305   13.9623   32.9292 C   0  0  0  0  0  0  0  0  0  0  0  0
  -13.6144   13.1645   33.8290 O   0  0  0  0  0  0  0  0  0  0  0  0
  -14.3411   14.5758   32.1961 O   0  5  0  0  0  0  0  0  0  0  0  0
  -14.1564   13.1974   28.3892 C   0  0  0  0  0  0  0  0  0  0  0  0
  -14.9701   13.1827   29.0694 H   0  0  0  0  0  0  0  0  0  0  0  0
  -12.4818   11.9663   27.1441 C   0  0  0  0  0  0  0  0  0  0  0  0
  -12.0110   11.0594   26.8615 H   0  0  0  0  0  0  0  0  0  0  0  0
   -8.7357   16.1675   20.3047 C   0  0  0  0  0  0  0  0  0  0  0  0
   -9.3880   16.7168   19.6739 H   0  0  0  0  0  0  0  0  0  0  0  0
   -5.4240   19.0372   24.6464 C   0  0  0  0  0  0  0  0  0  0  0  0
   -5.4676   19.2424   23.2723 O   0  5  0  0  0  0  0  0  0  0  0  0
   -4.4344   19.3937   25.2951 O   0  0  0  0  0  0  0  0  0  0  0  0
  1  7  2  0  0  0  0
  1  8  2  0  0  0  0
  1 10  1  0  0  0  0
  1 26  1  0  0  0  0
  2 13  1  0  0  0  0
  2 16  1  0  0  0  0
  3 13  1  0  0  0  0
  3 17  1  0  0  0  0
  4 14  1  0  0  0  0
  4 20  1  0  0  0  0
  5 19  1  0  0  0  0
  5 53  1  0  0  0  0
  6 20  2  0  0  0  0
  9 18  1  0  0  0  0
  9 20  1  0  0  0  0
  9 47  1  0  0  0  0
 10 21  1  0  0  0  0
 10 23  1  0  0  0  0
 11 34  1  0  0  0  0
 11 63  1  0  0  0  0
 11 64  1  0  0  0  0
 12 13  1  0  0  0  0
 12 14  1  0  0  0  0
 12 15  1  0  0  0  0
 12 35  1  0  0  0  0
 13 36  1  0  0  0  0
 14 16  1  0  0  0  0
 14 37  1  0  0  0  0
 15 17  1  0  0  0  0
 15 38  1  0  0  0  0
 15 39  1  0  0  0  0
 16 40  1  0  0  0  0
 16 41  1  0  0  0  0
 17 42  1  0  0  0  0
 17 65  1  0  0  0  0
 18 19  1  0  0  0  0
 18 22  1  0  0  0  0
 18 43  1  0  0  0  0
 19 21  1  0  0  0  0
 19 44  1  0  0  0  0
 21 45  1  0  0  0  0
 21 46  1  0  0  0  0
 22 25  1  0  0  0  0
 22 48  1  0  0  0  0
 22 49  1  0  0  0  0
 23 24  1  0  0  0  0
 23 50  1  0  0  0  0
 23 51  1  0  0  0  0
 24 27  1  0  0  0  0
 24 52  1  0  0  0  0
 24 74  1  0  0  0  0
 25 28  2  0  0  0  0
 25 29  1  0  0  0  0
 26 30  1  0  0  0  0
 26 31  2  0  0  0  0
 27 54  1  0  0  0  0
 27 55  1  0  0  0  0
 27 56  1  0  0  0  0
 28 57  1  0  0  0  0
 28 70  1  0  0  0  0
 29 58  1  0  0  0  0
 29 68  2  0  0  0  0
 30 59  1  0  0  0  0
 30 72  2  0  0  0  0
 31 33  1  0  0  0  0
 31 60  1  0  0  0  0
 32 62  1  0  0  0  0
 32 68  1  0  0  0  0
 32 70  2  0  0  0  0
 33 34  2  0  0  0  0
 33 61  1  0  0  0  0
 34 72  1  0  0  0  0
 65 66  2  0  0  0  0
 65 67  1  0  0  0  0
 68 69  1  0  0  0  0
 70 71  1  0  0  0  0
 72 73  1  0  0  0  0
 74 75  1  0  0  0  0
 74 76  2  0  0  0  0
M  CHG  1  67  -1
M  CHG  1  75  -1
M  END
> <Clean Energy>
120.544

> <Gold.Version>
5.6.1

> <Gold.Id.Protein>
ID|ID_protein|mol2

> <Gold.Goldscore.Fitness>
102.9511

> <Gold.Goldscore.Internal.Vdw>
-2.5013

> <Gold.Goldscore.Internal.Torsion>
-13.7805

> <Gold.Goldscore.External.Vdw>
63.6767

> <Gold.Goldscore.Internal.HBond>
0.0000

> <Gold.Goldscore.External.HBond>
21.5389

> <Gold.Goldscore.Internal.Correction>
-10.1385

> <Gold.Goldscore.Reference.RMSD>
0.9211

> <Gold.Goldscore.Hbonds>
donor molecule, donor type, donor heavy atom, donor atom, acceptor molecule, acceptor atom, score
      P1  H   833  2629       L1    75  0.57
      P1  H   976  2166       L1     3  0.07
      P1  H    73  2240       L1    67  0.88
      P1  H   984  2167       L1     3  0.33
      L1  H     5    53       P1   958  1.00
      L1  H     9    47       P1   970  0.03
      L1  H    11    64       P1   231  0.02

> <Gold.Goldscore.Internal.Vdw.Weighted>
-2.5013

> <Gold.Goldscore.Internal.Torsion.Weighted>
-13.7805

> <Gold.Goldscore.External.Vdw.Weighted>
87.5555

> <Gold.Goldscore.Internal.HBond.Weighted>
0.0000

> <Gold.Goldscore.External.HBond.Weighted>
21.5389

> <Gold.Goldscore.Internal.Correction.Weighted>
-10.1385

> <Gold.Reference.RMSD>
0.9211

> <Gold.Protein.RotatedTorsions>
[ 1648  237  236  233 ] final  105.75 input   60.00 | X-H torsion
[ 1672  356  355  354 ] final -161.51 input   60.00 | X-H torsion
[ 1841  613  612  609 ] final   51.03 input   60.00 | X-H torsion
[ 3049 1373 1372 1369 ] final   73.96 input   60.00 | X-H torsion
[ 1557  205  204  201 ] final   41.52 input   60.00 | X-H torsion
[ 2168  965  964  961 ] final  116.80 input   60.00 | X-H torsion
[ 2192  997  996  993 ] final -139.70 input   60.00 | X-H torsion
[ 2139 1116 1115 1114 ] final  119.61 input   60.00 | X-H torsion

> <Gold.Protein.ActiveResidues>
 LEU5    ARG8    PRO9    LEU10   ALA22   LEU23   LEU24   ASP25   THR26   GLY27  
 ALA28   ASP29   ASP30   THR31   VAL32   LEU33   GLU34   LYS45   MET46   ILE47  
 GLY48   GLY49   ILE50   GLY51   GLY52   PHE53   ILE54   VAL56   GLN58   THR74  
 VAL75   LEU76   VAL77   PRO79   THR80   PRO81   VAL82   ASN83   ILE84   ILE85  
 GLY86   ARG87   ASN88   LEU89   LEU90   LEU97   ARG8    PRO9    LEU10   ALA22  
 LEU23   LEU24   ASP25   THR26   GLY27   ALA28   ASP29   ASP30   THR31   VAL32  
 LEU33   GLU34   LYS45   MET46   ILE47   GLY48   GLY49   ILE50   GLY51   GLY52  
 PHE53   ILE54   VAL56   THR74   VAL75   LEU76   PRO79   THR80   PRO81   VAL82  
 ASN83   ILE84   ILE85   GLY86   ARG87   ASN88   LEU89   LEU90   LEU97  

> <Gold.Protein.RotatedAtoms>
  -11.6140   24.3303   26.5157 H   0  0  0  0  0  0  0  0  0  0  0  0  # atno 1557 bound_to 205 
  -15.2201   19.2474   15.6498 H   0  0  0  0  0  0  0  0  0  0  0  0  # atno 1648 bound_to 237 
   -4.0923   15.1588   13.1694 H   0  0  0  0  0  0  0  0  0  0  0  0  # atno 1672 bound_to 356 
   -3.9739   14.0288   11.9626 H   0  0  0  0  0  0  0  0  0  0  0  0  # atno 1673 bound_to 356 
   -4.8352   15.4225   11.7112 H   0  0  0  0  0  0  0  0  0  0  0  0  # atno 1674 bound_to 356 
  -12.7714   10.2723   23.4736 H   0  0  0  0  0  0  0  0  0  0  0  0  # atno 1841 bound_to 613 
  -10.3430   12.5868   39.3449 H   0  0  0  0  0  0  0  0  0  0  0  0  # atno 2139 bound_to 1116
  -10.6765   13.4612   40.7128 H   0  0  0  0  0  0  0  0  0  0  0  0  # atno 2140 bound_to 1116
   -9.1716   13.5433   40.0232 H   0  0  0  0  0  0  0  0  0  0  0  0  # atno 2141 bound_to 1116
  -16.1937   22.7397   26.6941 H   0  0  0  0  0  0  0  0  0  0  0  0  # atno 2168 bound_to 965 
   -8.0108   23.7212   36.9627 H   0  0  0  0  0  0  0  0  0  0  0  0  # atno 2192 bound_to 997 
   -2.8409   16.2248   30.1751 H   0  0  0  0  0  0  0  0  0  0  0  0  # atno 3049 bound_to 1373
  -15.0936   18.9007   17.2346 LP  0  0  0  0  0  0  0  0  0  0  0  0  # atno 3161 bound_to 237 
  -16.5456   18.8206   16.4917 LP  0  0  0  0  0  0  0  0  0  0  0  0  # atno 3162 bound_to 237 
  -14.3767   10.0616   23.3097 LP  0  0  0  0  0  0  0  0  0  0  0  0  # atno 3183 bound_to 613 
  -13.6180   11.2501   22.4860 LP  0  0  0  0  0  0  0  0  0  0  0  0  # atno 3184 bound_to 613 
   -1.5389   17.1558   29.8820 LP  0  0  0  0  0  0  0  0  0  0  0  0  # atno 3221 bound_to 1373
   -2.6896   17.6612   30.9246 LP  0  0  0  0  0  0  0  0  0  0  0  0  # atno 3222 bound_to 1373
  -13.1858   24.5048   26.8993 LP  0  0  0  0  0  0  0  0  0  0  0  0  # atno 3235 bound_to 205 
  -12.1915   25.8001   26.9083 LP  0  0  0  0  0  0  0  0  0  0  0  0  # atno 3236 bound_to 205 
  -14.5907   22.5051   26.8471 LP  0  0  0  0  0  0  0  0  0  0  0  0  # atno 3271 bound_to 965 
  -15.1645   23.9587   26.3734 LP  0  0  0  0  0  0  0  0  0  0  0  0  # atno 3272 bound_to 965 
   -9.0809   22.7396   37.6970 LP  0  0  0  0  0  0  0  0  0  0  0  0  # atno 3287 bound_to 997 
   -8.7357   22.5372   36.1139 LP  0  0  0  0  0  0  0  0  0  0  0  0  # atno 3288 bound_to 997 

$$$$
