dana5|M5|mol|1|dock1
  -GOLD-   1 318 3193D 1   1.00000     0.00000

 88 91  0  0  0  0  0  0  0  0  3 V2000
   -7.8716   15.1346   24.7854 S   0  0  0  0  0  0  0  0  0  0  0  0
   -9.1471   16.2860   32.8897 O   0  0  0  0  0  0  0  0  0  0  0  0
  -11.5399   15.4078   32.9037 O   0  0  0  0  0  0  0  0  0  0  0  0
  -10.2523   14.9244   30.7297 O   0  0  0  0  0  0  0  0  0  0  0  0
  -11.1124   18.2935   26.5554 O   0  0  0  0  0  0  0  0  0  0  0  0
   -8.7142   14.9397   29.0415 O   0  0  0  0  0  0  0  0  0  0  0  0
   -8.9917   14.2201   25.2436 O   0  0  0  0  0  0  0  0  0  0  0  0
   -6.5374   14.4362   24.9631 O   0  0  0  0  0  0  0  0  0  0  0  0
  -10.7559   15.8998   28.6480 N   0  0  0  0  0  0  0  0  0  0  0  0
   -7.8343   16.6256   25.7602 N   0  0  0  0  0  0  0  0  0  0  0  0
   -8.8626   16.6613   19.0731 N   0  0  0  0  0  0  0  0  0  0  0  0
   -9.6662   14.0136   33.0044 C   0  0  2  0  0  0  0  0  0  0  0  0
  -10.1423   15.3348   33.4736 C   0  0  1  0  0  0  0  0  0  0  0  0
   -9.2418   14.3379   31.5500 C   0  0  2  0  0  0  0  0  0  0  0  0
  -10.8644   13.1511   33.3958 C   0  0  0  0  0  0  0  0  0  0  0  0
   -8.2663   15.4146   32.0299 C   0  0  0  0  0  0  0  0  0  0  0  0
  -11.9400   13.9713   32.6923 C   0  0  1  0  0  0  0  0  0  0  0  0
  -10.5449   16.0097   27.2174 C   0  0  2  0  0  0  0  0  0  0  0  0
  -10.0080   17.4372   26.8346 C   0  0  1  0  0  0  0  0  0  0  0  0
   -9.8114   15.3075   29.4785 C   0  0  0  0  0  0  0  0  0  0  0  0
   -9.1117   17.3999   25.5617 C   0  0  0  0  0  0  0  0  0  0  0  0
  -11.9234   15.7580   26.5007 C   0  0  0  0  0  0  0  0  0  0  0  0
   -6.6483   17.4368   25.3222 C   0  0  0  0  0  0  0  0  0  0  0  0
   -6.0369   18.3123   26.4502 C   0  0  0  0  0  0  0  0  0  0  0  0
  -12.4954   14.4610   26.9850 C   0  0  0  0  0  0  0  0  0  0  0  0
   -8.1118   15.5431   23.0608 C   0  0  0  0  0  0  0  0  0  0  0  0
   -5.4374   17.4106   27.5414 C   0  0  0  0  0  0  0  0  0  0  0  0
   -4.9309   19.1850   25.8524 C   0  0  0  0  0  0  0  0  0  0  0  0
  -13.4626   14.4502   27.8976 C   0  0  0  0  0  0  0  0  0  0  0  0
  -12.0015   13.2000   26.4234 C   0  0  0  0  0  0  0  0  0  0  0  0
   -6.9817   15.9675   22.2305 C   0  0  0  0  0  0  0  0  0  0  0  0
   -9.3357   15.4883   22.5466 C   0  0  0  0  0  0  0  0  0  0  0  0
  -14.0359   13.1782   28.3360 C   0  0  0  0  0  0  0  0  0  0  0  0
  -13.5925   12.0318   27.8199 C   0  0  0  0  0  0  0  0  0  0  0  0
   -7.1742   16.3395   20.9542 C   0  0  0  0  0  0  0  0  0  0  0  0
   -9.5681   15.8682   21.1663 C   0  0  0  0  0  0  0  0  0  0  0  0
   -8.5636   16.2832   20.3997 C   0  0  0  0  0  0  0  0  0  0  0  0
   -8.7425   13.6906   33.5018 H   0  0  0  0  0  0  0  0  0  0  0  0
  -10.2325   15.3294   34.5682 H   0  0  0  0  0  0  0  0  0  0  0  0
   -8.7951   13.4811   31.0249 H   0  0  0  0  0  0  0  0  0  0  0  0
  -10.9701   13.2311   34.4860 H   0  0  0  0  0  0  0  0  0  0  0  0
  -10.8460   12.0945   33.0930 H   0  0  0  0  0  0  0  0  0  0  0  0
   -7.7592   15.9615   31.2233 H   0  0  0  0  0  0  0  0  0  0  0  0
   -7.5217   14.9217   32.6705 H   0  0  0  0  0  0  0  0  0  0  0  0
  -11.8057   13.7899   31.6269 H   0  0  0  0  0  0  0  0  0  0  0  0
   -9.8380   15.2394   26.8801 H   0  0  0  0  0  0  0  0  0  0  0  0
   -9.4428   17.8335   27.6842 H   0  0  0  0  0  0  0  0  0  0  0  0
   -8.8789   18.4387   25.3222 H   0  0  0  0  0  0  0  0  0  0  0  0
   -9.6486   16.9533   24.7222 H   0  0  0  0  0  0  0  0  0  0  0  0
  -11.6258   16.1545   29.0404 H   0  0  0  0  0  0  0  0  0  0  0  0
  -12.6151   16.5724   26.7416 H   0  0  0  0  0  0  0  0  0  0  0  0
  -11.7204   15.7017   25.4219 H   0  0  0  0  0  0  0  0  0  0  0  0
   -6.9483   18.0855   24.4949 H   0  0  0  0  0  0  0  0  0  0  0  0
   -5.8672   16.7461   24.9778 H   0  0  0  0  0  0  0  0  0  0  0  0
   -6.8052   18.9604   26.8909 H   0  0  0  0  0  0  0  0  0  0  0  0
  -11.0522   19.1003   27.1247 H   0  0  0  0  0  0  0  0  0  0  0  0
   -4.7910   16.6526   27.0753 H   0  0  0  0  0  0  0  0  0  0  0  0
   -6.2494   16.9143   28.0914 H   0  0  0  0  0  0  0  0  0  0  0  0
   -4.8448   18.0238   28.2343 H   0  0  0  0  0  0  0  0  0  0  0  0
   -4.5551   19.8756   26.6207 H   0  0  0  0  0  0  0  0  0  0  0  0
   -4.1110   18.5433   25.5013 H   0  0  0  0  0  0  0  0  0  0  0  0
   -5.3368   19.7592   25.0070 H   0  0  0  0  0  0  0  0  0  0  0  0
  -13.8250   15.3629   28.2979 H   0  0  0  0  0  0  0  0  0  0  0  0
  -11.2325   13.2123   25.6934 H   0  0  0  0  0  0  0  0  0  0  0  0
   -6.0249   15.9865   22.6693 H   0  0  0  0  0  0  0  0  0  0  0  0
  -10.1502   15.1875   23.1563 H   0  0  0  0  0  0  0  0  0  0  0  0
  -10.5502   15.8301   20.7695 H   0  0  0  0  0  0  0  0  0  0  0  0
  -14.0122   11.1113   28.1358 H   0  0  0  0  0  0  0  0  0  0  0  0
   -8.1293   16.9767   18.4815 H   0  0  0  0  0  0  0  0  0  0  0  0
   -9.7827   16.6071   18.7173 H   0  0  0  0  0  0  0  0  0  0  0  0
  -13.3603   13.6153   32.9931 C   0  0  0  0  0  0  0  0  0  0  0  0
  -13.6134   12.6928   33.7752 O   0  0  0  0  0  0  0  0  0  0  0  0
  -14.3951   14.3101   32.3756 O   0  5  0  0  0  0  0  0  0  0  0  0
  -12.5273   12.0446   26.8182 C   0  0  0  0  0  0  0  0  0  0  0  0
  -12.1757   11.1328   26.4055 H   0  0  0  0  0  0  0  0  0  0  0  0
  -15.0996   13.1638   29.3338 C   0  0  0  0  0  0  0  0  0  0  0  0
  -15.1708   12.2375   30.1488 O   0  0  0  0  0  0  0  0  0  0  0  0
  -16.0342   14.1929   29.3662 O   0  5  0  0  0  0  0  0  0  0  0  0
   -6.0126   16.8267   20.0520 C   0  0  0  0  0  0  0  0  0  0  0  0
   -6.3802   17.6453   19.4174 H   0  0  0  0  0  0  0  0  0  0  0  0
   -5.6225   15.6770   19.1120 C   0  0  0  0  0  0  0  0  0  0  0  0
   -4.7830   15.9937   18.4763 H   0  0  0  0  0  0  0  0  0  0  0  0
   -5.3201   14.8059   19.7111 H   0  0  0  0  0  0  0  0  0  0  0  0
   -4.7430   17.2554   20.8264 C   0  0  0  0  0  0  0  0  0  0  0  0
   -4.2689   16.3714   21.2772 H   0  0  0  0  0  0  0  0  0  0  0  0
   -4.0367   17.7389   20.1348 H   0  0  0  0  0  0  0  0  0  0  0  0
   -5.0216   17.9665   21.6165 H   0  0  0  0  0  0  0  0  0  0  0  0
   -6.4811   15.4112   18.4828 H   0  0  0  0  0  0  0  0  0  0  0  0
  1  7  2  0  0  0  0
  1  8  2  0  0  0  0
  1 10  1  0  0  0  0
  1 26  1  0  0  0  0
  2 13  1  0  0  0  0
  2 16  1  0  0  0  0
  3 13  1  0  0  0  0
  3 17  1  0  0  0  0
  4 14  1  0  0  0  0
  4 20  1  0  0  0  0
  5 19  1  0  0  0  0
  5 56  1  0  0  0  0
  6 20  2  0  0  0  0
  9 18  1  0  0  0  0
  9 20  1  0  0  0  0
  9 50  1  0  0  0  0
 10 21  1  0  0  0  0
 10 23  1  0  0  0  0
 11 37  1  0  0  0  0
 11 69  1  0  0  0  0
 11 70  1  0  0  0  0
 12 13  1  0  0  0  0
 12 14  1  0  0  0  0
 12 15  1  0  0  0  0
 12 38  1  0  0  0  0
 13 39  1  0  0  0  0
 14 16  1  0  0  0  0
 14 40  1  0  0  0  0
 15 17  1  0  0  0  0
 15 41  1  0  0  0  0
 15 42  1  0  0  0  0
 16 43  1  0  0  0  0
 16 44  1  0  0  0  0
 17 45  1  0  0  0  0
 17 71  1  0  0  0  0
 18 19  1  0  0  0  0
 18 22  1  0  0  0  0
 18 46  1  0  0  0  0
 19 21  1  0  0  0  0
 19 47  1  0  0  0  0
 21 48  1  0  0  0  0
 21 49  1  0  0  0  0
 22 25  1  0  0  0  0
 22 51  1  0  0  0  0
 22 52  1  0  0  0  0
 23 24  1  0  0  0  0
 23 53  1  0  0  0  0
 23 54  1  0  0  0  0
 24 27  1  0  0  0  0
 24 28  1  0  0  0  0
 24 55  1  0  0  0  0
 25 29  2  0  0  0  0
 25 30  1  0  0  0  0
 26 31  1  0  0  0  0
 26 32  2  0  0  0  0
 27 57  1  0  0  0  0
 27 58  1  0  0  0  0
 27 59  1  0  0  0  0
 28 60  1  0  0  0  0
 28 61  1  0  0  0  0
 28 62  1  0  0  0  0
 29 33  1  0  0  0  0
 29 63  1  0  0  0  0
 30 64  1  0  0  0  0
 30 74  2  0  0  0  0
 31 35  2  0  0  0  0
 31 65  1  0  0  0  0
 32 36  1  0  0  0  0
 32 66  1  0  0  0  0
 33 34  2  0  0  0  0
 33 76  1  0  0  0  0
 34 68  1  0  0  0  0
 34 74  1  0  0  0  0
 35 37  1  0  0  0  0
 35 79  1  0  0  0  0
 36 37  2  0  0  0  0
 36 67  1  0  0  0  0
 71 72  2  0  0  0  0
 71 73  1  0  0  0  0
 74 75  1  0  0  0  0
 76 77  2  0  0  0  0
 76 78  1  0  0  0  0
 79 80  1  0  0  0  0
 79 81  1  0  0  0  0
 79 84  1  0  0  0  0
 81 82  1  0  0  0  0
 81 83  1  0  0  0  0
 81 88  1  0  0  0  0
 84 85  1  0  0  0  0
 84 86  1  0  0  0  0
 84 87  1  0  0  0  0
M  CHG  1  73  -1
M  CHG  1  78  -1
M  END
> <Clean Energy>
118.72

> <Gold.Version>
5.6.1

> <Gold.Id.Protein>
ID|ID_protein|mol2

> <Gold.Goldscore.Fitness>
100.0120

> <Gold.Goldscore.Internal.Vdw>
-11.6855

> <Gold.Goldscore.Internal.Torsion>
-15.1816

> <Gold.Goldscore.External.Vdw>
68.4489

> <Gold.Goldscore.Internal.HBond>
0.0000

> <Gold.Goldscore.External.HBond>
14.6219

> <Gold.Goldscore.Internal.Correction>
-18.1399

> <Gold.Goldscore.Reference.RMSD>
0.9116

> <Gold.Goldscore.Hbonds>
donor molecule, donor type, donor heavy atom, donor atom, acceptor molecule, acceptor atom, score
      P1  H  1141  2124       L1     7  0.03
      P1  H   976  2166       L1     3  0.13
      P1  H    73  2240       L1    73  0.69
      P1  H   984  2167       L1     3  0.17
      L1  H     5    56       P1   958  1.00
      L1  H     9    50       P1   970  0.03
      L1  H    11    70       P1   227  0.51

> <Gold.Goldscore.Internal.Vdw.Weighted>
-11.6855

> <Gold.Goldscore.Internal.Torsion.Weighted>
-15.1816

> <Gold.Goldscore.External.Vdw.Weighted>
94.1173

> <Gold.Goldscore.Internal.HBond.Weighted>
0.0000

> <Gold.Goldscore.External.HBond.Weighted>
14.6219

> <Gold.Goldscore.Internal.Correction.Weighted>
-18.1399

> <Gold.Reference.RMSD>
0.9116

> <Gold.Protein.RotatedTorsions>
[ 1648  237  236  233 ] final   67.98 input   60.00 | X-H torsion
[ 1672  356  355  354 ] final -149.37 input   60.00 | X-H torsion
[ 1841  613  612  609 ] final   64.69 input   60.00 | X-H torsion
[ 3049 1373 1372 1369 ] final   54.48 input   60.00 | X-H torsion
[ 1557  205  204  201 ] final  -49.54 input   60.00 | X-H torsion
[ 2168  965  964  961 ] final  -99.50 input   60.00 | X-H torsion
[ 2192  997  996  993 ] final   -0.95 input   60.00 | X-H torsion
[ 2139 1116 1115 1114 ] final   64.09 input   60.00 | X-H torsion

> <Gold.Protein.ActiveResidues>
 LEU5    ARG8    PRO9    LEU10   ALA22   LEU23   LEU24   ASP25   THR26   GLY27  
 ALA28   ASP29   ASP30   THR31   VAL32   LEU33   GLU34   LYS45   MET46   ILE47  
 GLY48   GLY49   ILE50   GLY51   GLY52   PHE53   ILE54   VAL56   GLN58   THR74  
 VAL75   LEU76   VAL77   PRO79   THR80   PRO81   VAL82   ASN83   ILE84   ILE85  
 GLY86   ARG87   ASN88   LEU89   LEU90   LEU97   ARG8    PRO9    LEU10   ALA22  
 LEU23   LEU24   ASP25   THR26   GLY27   ALA28   ASP29   ASP30   THR31   VAL32  
 LEU33   GLU34   LYS45   MET46   ILE47   GLY48   GLY49   ILE50   GLY51   GLY52  
 PHE53   ILE54   VAL56   THR74   VAL75   LEU76   PRO79   THR80   PRO81   VAL82  
 ASN83   ILE84   ILE85   GLY86   ARG87   ASN88   LEU89   LEU90   LEU97  

> <Gold.Protein.RotatedAtoms>
  -12.9122   24.1449   26.7719 H   0  0  0  0  0  0  0  0  0  0  0  0  # atno 1557 bound_to 205 
  -14.7938   19.2213   16.0797 H   0  0  0  0  0  0  0  0  0  0  0  0  # atno 1648 bound_to 237 
   -3.9924   14.9831   13.1801 H   0  0  0  0  0  0  0  0  0  0  0  0  # atno 1672 bound_to 356 
   -4.0714   14.0796   11.7926 H   0  0  0  0  0  0  0  0  0  0  0  0  # atno 1673 bound_to 356 
   -4.8376   15.5474   11.8706 H   0  0  0  0  0  0  0  0  0  0  0  0  # atno 1674 bound_to 356 
  -12.6918   10.4403   23.3513 H   0  0  0  0  0  0  0  0  0  0  0  0  # atno 1841 bound_to 613 
   -9.5055   12.8907   39.3127 H   0  0  0  0  0  0  0  0  0  0  0  0  # atno 2139 bound_to 1116
  -10.9681   12.8913   40.0924 H   0  0  0  0  0  0  0  0  0  0  0  0  # atno 2140 bound_to 1116
   -9.7175   13.8092   40.6760 H   0  0  0  0  0  0  0  0  0  0  0  0  # atno 2141 bound_to 1116
  -14.8079   23.8251   26.4353 H   0  0  0  0  0  0  0  0  0  0  0  0  # atno 2168 bound_to 965 
   -8.9240   22.3814   36.2982 H   0  0  0  0  0  0  0  0  0  0  0  0  # atno 2192 bound_to 997 
   -2.5932   16.1732   29.9846 H   0  0  0  0  0  0  0  0  0  0  0  0  # atno 3049 bound_to 1373
  -15.6733   18.7672   17.3712 LP  0  0  0  0  0  0  0  0  0  0  0  0  # atno 3161 bound_to 237 
  -16.3953   18.9804   15.9221 LP  0  0  0  0  0  0  0  0  0  0  0  0  # atno 3162 bound_to 237 
  -14.2383    9.9415   23.4387 LP  0  0  0  0  0  0  0  0  0  0  0  0  # atno 3183 bound_to 613 
  -13.8365   11.2011   22.4802 LP  0  0  0  0  0  0  0  0  0  0  0  0  # atno 3184 bound_to 613 
   -1.5558   17.4250   30.0522 LP  0  0  0  0  0  0  0  0  0  0  0  0  # atno 3221 bound_to 1373
   -2.9221   17.4440   30.9463 LP  0  0  0  0  0  0  0  0  0  0  0  0  # atno 3222 bound_to 1373
  -12.6494   25.7348   26.9986 LP  0  0  0  0  0  0  0  0  0  0  0  0  # atno 3235 bound_to 205 
  -11.4206   24.7568   26.5510 LP  0  0  0  0  0  0  0  0  0  0  0  0  # atno 3236 bound_to 205 
  -16.2586   23.1018   26.5777 LP  0  0  0  0  0  0  0  0  0  0  0  0  # atno 3271 bound_to 965 
  -14.8923   22.2689   26.9034 LP  0  0  0  0  0  0  0  0  0  0  0  0  # atno 3272 bound_to 965 
   -7.9761   23.6517   36.6666 LP  0  0  0  0  0  0  0  0  0  0  0  0  # atno 3287 bound_to 997 
   -8.9208   22.9744   37.8135 LP  0  0  0  0  0  0  0  0  0  0  0  0  # atno 3288 bound_to 997 

$$$$
