dana5|M6|mol|1|dock1
  -GOLD-   1 318 4493D 1   1.00000     0.00000

 81 84  0  0  0  0  0  0  0  0  3 V2000
   -8.4753   14.6569   24.2805 S   0  0  0  0  0  0  0  0  0  0  0  0
   -9.0892   16.5315   32.7503 O   0  0  0  0  0  0  0  0  0  0  0  0
  -11.5064   15.7294   32.8404 O   0  0  0  0  0  0  0  0  0  0  0  0
  -10.2718   15.1054   30.6722 O   0  0  0  0  0  0  0  0  0  0  0  0
  -11.0923   18.2172   26.3603 O   0  0  0  0  0  0  0  0  0  0  0  0
   -8.9238   14.6759   28.8797 O   0  0  0  0  0  0  0  0  0  0  0  0
   -9.9205   14.2153   24.4118 O   0  0  0  0  0  0  0  0  0  0  0  0
   -7.5647   13.5714   24.8206 O   0  0  0  0  0  0  0  0  0  0  0  0
  -10.7795   15.9758   28.5466 N   0  0  0  0  0  0  0  0  0  0  0  0
   -8.1770   16.1242   25.2337 N   0  0  0  0  0  0  0  0  0  0  0  0
   -7.1738   15.5163   18.5035 N   0  0  0  0  0  0  0  0  0  0  0  0
   -9.6743   14.2833   32.9761 C   0  0  2  0  0  0  0  0  0  0  0  0
  -10.1026   15.6386   33.3918 C   0  0  1  0  0  0  0  0  0  0  0  0
   -9.2645   14.5281   31.5022 C   0  0  2  0  0  0  0  0  0  0  0  0
  -10.8917   13.4768   33.4246 C   0  0  0  0  0  0  0  0  0  0  0  0
   -8.2495   15.5958   31.9176 C   0  0  0  0  0  0  0  0  0  0  0  0
  -11.9538   14.2981   32.7010 C   0  0  1  0  0  0  0  0  0  0  0  0
  -10.6796   15.9279   27.1020 C   0  0  2  0  0  0  0  0  0  0  0  0
  -10.0559   17.2557   26.5409 C   0  0  1  0  0  0  0  0  0  0  0  0
   -9.8888   15.2837   29.3588 C   0  0  0  0  0  0  0  0  0  0  0  0
   -9.3694   17.0391   25.1600 C   0  0  0  0  0  0  0  0  0  0  0  0
  -12.1276   15.7358   26.5168 C   0  0  0  0  0  0  0  0  0  0  0  0
   -6.9535   16.7966   24.6851 C   0  0  0  0  0  0  0  0  0  0  0  0
   -6.3097   17.8118   25.6696 C   0  0  0  0  0  0  0  0  0  0  0  0
  -12.7030   14.4615   27.0551 C   0  0  0  0  0  0  0  0  0  0  0  0
   -8.1050   14.9381   22.5544 C   0  0  0  0  0  0  0  0  0  0  0  0
   -5.9008   17.0876   26.9630 C   0  0  0  0  0  0  0  0  0  0  0  0
   -5.0648   18.4169   25.0169 C   0  0  0  0  0  0  0  0  0  0  0  0
  -13.6229   14.4905   28.0153 C   0  0  0  0  0  0  0  0  0  0  0  0
  -12.2666   13.1792   26.4943 C   0  0  0  0  0  0  0  0  0  0  0  0
   -9.1137   15.4938   21.6463 C   0  0  0  0  0  0  0  0  0  0  0  0
   -6.8959   14.6305   22.0884 C   0  0  0  0  0  0  0  0  0  0  0  0
  -14.2012   13.2397   28.5066 C   0  0  0  0  0  0  0  0  0  0  0  0
  -13.8106   12.0748   27.9917 C   0  0  0  0  0  0  0  0  0  0  0  0
   -8.8279   15.6773   20.3593 C   0  0  0  0  0  0  0  0  0  0  0  0
   -6.5771   14.8362   20.6776 C   0  0  0  0  0  0  0  0  0  0  0  0
   -7.4935   15.3313   19.8506 C   0  0  0  0  0  0  0  0  0  0  0  0
   -8.7526   13.9549   33.4737 H   0  0  0  0  0  0  0  0  0  0  0  0
  -10.1748   15.6853   34.4867 H   0  0  0  0  0  0  0  0  0  0  0  0
   -8.8518   13.6356   31.0099 H   0  0  0  0  0  0  0  0  0  0  0  0
  -10.9768   13.6092   34.5115 H   0  0  0  0  0  0  0  0  0  0  0  0
  -10.9106   12.4076   33.1700 H   0  0  0  0  0  0  0  0  0  0  0  0
   -7.7399   16.0901   31.0792 H   0  0  0  0  0  0  0  0  0  0  0  0
   -7.5092   15.1099   32.5684 H   0  0  0  0  0  0  0  0  0  0  0  0
  -11.8428   14.0647   31.6432 H   0  0  0  0  0  0  0  0  0  0  0  0
  -10.0686   15.0677   26.7961 H   0  0  0  0  0  0  0  0  0  0  0  0
   -9.3292   17.6321   27.2677 H   0  0  0  0  0  0  0  0  0  0  0  0
   -9.0538   18.0251   24.8148 H   0  0  0  0  0  0  0  0  0  0  0  0
  -10.0746   16.6174   24.4394 H   0  0  0  0  0  0  0  0  0  0  0  0
  -11.5475   16.4256   28.9750 H   0  0  0  0  0  0  0  0  0  0  0  0
  -12.7595   16.5766   26.8228 H   0  0  0  0  0  0  0  0  0  0  0  0
  -12.0299   15.6759   25.4237 H   0  0  0  0  0  0  0  0  0  0  0  0
   -7.2173   17.3136   23.7575 H   0  0  0  0  0  0  0  0  0  0  0  0
   -6.2031   16.0242   24.4702 H   0  0  0  0  0  0  0  0  0  0  0  0
   -7.0168   18.6169   25.9070 H   0  0  0  0  0  0  0  0  0  0  0  0
  -10.9573   18.9658   26.9927 H   0  0  0  0  0  0  0  0  0  0  0  0
   -6.7973   16.6815   27.4541 H   0  0  0  0  0  0  0  0  0  0  0  0
   -5.4015   17.7976   27.6370 H   0  0  0  0  0  0  0  0  0  0  0  0
   -5.2125   16.2670   26.7174 H   0  0  0  0  0  0  0  0  0  0  0  0
   -4.3607   17.6131   24.7583 H   0  0  0  0  0  0  0  0  0  0  0  0
   -5.3578   18.9566   24.1058 H   0  0  0  0  0  0  0  0  0  0  0  0
   -4.5868   19.1137   25.7200 H   0  0  0  0  0  0  0  0  0  0  0  0
  -13.9439   15.4184   28.4151 H   0  0  0  0  0  0  0  0  0  0  0  0
  -11.5358   13.1596   25.7264 H   0  0  0  0  0  0  0  0  0  0  0  0
  -10.0769   15.7418   22.0130 H   0  0  0  0  0  0  0  0  0  0  0  0
   -6.1654   14.2259   22.7427 H   0  0  0  0  0  0  0  0  0  0  0  0
   -5.6139   14.5860   20.3113 H   0  0  0  0  0  0  0  0  0  0  0  0
  -14.2342   11.1698   28.3460 H   0  0  0  0  0  0  0  0  0  0  0  0
   -7.8553   15.8859   17.8811 H   0  0  0  0  0  0  0  0  0  0  0  0
   -6.2721   15.2831   18.1661 H   0  0  0  0  0  0  0  0  0  0  0  0
  -13.3794   14.0015   33.0383 C   0  0  0  0  0  0  0  0  0  0  0  0
  -13.6484   13.2866   34.0096 O   0  0  0  0  0  0  0  0  0  0  0  0
  -14.4006   14.5131   32.2443 O   0  5  0  0  0  0  0  0  0  0  0  0
  -12.7978   12.0432   26.9375 C   0  0  0  0  0  0  0  0  0  0  0  0
  -12.4881   11.1165   26.5254 H   0  0  0  0  0  0  0  0  0  0  0  0
  -15.2128   13.2690   29.5568 C   0  0  0  0  0  0  0  0  0  0  0  0
  -15.8289   14.3141   29.7928 O   0  0  0  0  0  0  0  0  0  0  0  0
  -15.4829   12.1206   30.2926 O   0  5  0  0  0  0  0  0  0  0  0  0
   -9.8056   16.1950   19.5078 N   0  0  0  0  0  0  0  0  0  0  0  0
  -10.7040   16.4217   19.8677 H   0  0  0  0  0  0  0  0  0  0  0  0
   -9.6104   16.3311   18.5460 H   0  0  0  0  0  0  0  0  0  0  0  0
  1  7  2  0  0  0  0
  1  8  2  0  0  0  0
  1 10  1  0  0  0  0
  1 26  1  0  0  0  0
  2 13  1  0  0  0  0
  2 16  1  0  0  0  0
  3 13  1  0  0  0  0
  3 17  1  0  0  0  0
  4 14  1  0  0  0  0
  4 20  1  0  0  0  0
  5 19  1  0  0  0  0
  5 56  1  0  0  0  0
  6 20  2  0  0  0  0
  9 18  1  0  0  0  0
  9 20  1  0  0  0  0
  9 50  1  0  0  0  0
 10 21  1  0  0  0  0
 10 23  1  0  0  0  0
 11 37  1  0  0  0  0
 11 69  1  0  0  0  0
 11 70  1  0  0  0  0
 12 13  1  0  0  0  0
 12 14  1  0  0  0  0
 12 15  1  0  0  0  0
 12 38  1  0  0  0  0
 13 39  1  0  0  0  0
 14 16  1  0  0  0  0
 14 40  1  0  0  0  0
 15 17  1  0  0  0  0
 15 41  1  0  0  0  0
 15 42  1  0  0  0  0
 16 43  1  0  0  0  0
 16 44  1  0  0  0  0
 17 45  1  0  0  0  0
 17 71  1  0  0  0  0
 18 19  1  0  0  0  0
 18 22  1  0  0  0  0
 18 46  1  0  0  0  0
 19 21  1  0  0  0  0
 19 47  1  0  0  0  0
 21 48  1  0  0  0  0
 21 49  1  0  0  0  0
 22 25  1  0  0  0  0
 22 51  1  0  0  0  0
 22 52  1  0  0  0  0
 23 24  1  0  0  0  0
 23 53  1  0  0  0  0
 23 54  1  0  0  0  0
 24 27  1  0  0  0  0
 24 28  1  0  0  0  0
 24 55  1  0  0  0  0
 25 29  2  0  0  0  0
 25 30  1  0  0  0  0
 26 31  1  0  0  0  0
 26 32  2  0  0  0  0
 27 57  1  0  0  0  0
 27 58  1  0  0  0  0
 27 59  1  0  0  0  0
 28 60  1  0  0  0  0
 28 61  1  0  0  0  0
 28 62  1  0  0  0  0
 29 33  1  0  0  0  0
 29 63  1  0  0  0  0
 30 64  1  0  0  0  0
 30 74  2  0  0  0  0
 31 35  2  0  0  0  0
 31 65  1  0  0  0  0
 32 36  1  0  0  0  0
 32 66  1  0  0  0  0
 33 34  2  0  0  0  0
 33 76  1  0  0  0  0
 34 68  1  0  0  0  0
 34 74  1  0  0  0  0
 35 37  1  0  0  0  0
 35 79  1  0  0  0  0
 36 37  2  0  0  0  0
 36 67  1  0  0  0  0
 71 72  2  0  0  0  0
 71 73  1  0  0  0  0
 74 75  1  0  0  0  0
 76 77  2  0  0  0  0
 76 78  1  0  0  0  0
 79 80  1  0  0  0  0
 79 81  1  0  0  0  0
M  CHG  1  73  -1
M  CHG  1  78  -1
M  END
> <Clean Energy>
105.906

> <Gold.Version>
5.6.1

> <Gold.Id.Protein>
ID|ID_protein|mol2

> <Gold.Goldscore.Fitness>
104.7911

> <Gold.Goldscore.Internal.Vdw>
-2.1918

> <Gold.Goldscore.Internal.Torsion>
-13.3281

> <Gold.Goldscore.External.Vdw>
67.5868

> <Gold.Goldscore.Internal.HBond>
0.0000

> <Gold.Goldscore.External.HBond>
16.0597

> <Gold.Goldscore.Internal.Correction>
-11.3195

> <Gold.Goldscore.Reference.RMSD>
0.9582

> <Gold.Goldscore.Hbonds>
donor molecule, donor type, donor heavy atom, donor atom, acceptor molecule, acceptor atom, score
      P1  H   976  2166       L1     3  0.09
      P1  H    73  2240       L1    73  0.90
      P1  H   984  2167       L1     3  0.30
      L1  H     5    56       P1   958  1.00
      L1  H     9    50       P1   970  0.10
      L1  H    11    69       P1   231  0.02

> <Gold.Goldscore.Internal.Vdw.Weighted>
-2.1918

> <Gold.Goldscore.Internal.Torsion.Weighted>
-13.3281

> <Gold.Goldscore.External.Vdw.Weighted>
92.9318

> <Gold.Goldscore.Internal.HBond.Weighted>
0.0000

> <Gold.Goldscore.External.HBond.Weighted>
16.0597

> <Gold.Goldscore.Internal.Correction.Weighted>
-11.3195

> <Gold.Reference.RMSD>
0.9582

> <Gold.Protein.RotatedTorsions>
[ 1648  237  236  233 ] final  178.99 input   60.00 | X-H torsion
[ 1672  356  355  354 ] final  129.79 input   60.00 | X-H torsion
[ 1841  613  612  609 ] final   62.77 input   60.00 | X-H torsion
[ 3049 1373 1372 1369 ] final   76.22 input   60.00 | X-H torsion
[ 1557  205  204  201 ] final  173.32 input   60.00 | X-H torsion
[ 2168  965  964  961 ] final   64.65 input   60.00 | X-H torsion
[ 2192  997  996  993 ] final   98.57 input   60.00 | X-H torsion
[ 2139 1116 1115 1114 ] final   45.09 input   60.00 | X-H torsion

> <Gold.Protein.ActiveResidues>
 LEU5    ARG8    PRO9    LEU10   ALA22   LEU23   LEU24   ASP25   THR26   GLY27  
 ALA28   ASP29   ASP30   THR31   VAL32   LEU33   GLU34   LYS45   MET46   ILE47  
 GLY48   GLY49   ILE50   GLY51   GLY52   PHE53   ILE54   VAL56   GLN58   THR74  
 VAL75   LEU76   VAL77   PRO79   THR80   PRO81   VAL82   ASN83   ILE84   ILE85  
 GLY86   ARG87   ASN88   LEU89   LEU90   LEU97   ARG8    PRO9    LEU10   ALA22  
 LEU23   LEU24   ASP25   THR26   GLY27   ALA28   ASP29   ASP30   THR31   VAL32  
 LEU33   GLU34   LYS45   MET46   ILE47   GLY48   GLY49   ILE50   GLY51   GLY52  
 PHE53   ILE54   VAL56   THR74   VAL75   LEU76   PRO79   THR80   PRO81   VAL82  
 ASN83   ILE84   ILE85   GLY86   ARG87   ASN88   LEU89   LEU90   LEU97  

> <Gold.Protein.RotatedAtoms>
  -12.3809   25.7957   26.9472 H   0  0  0  0  0  0  0  0  0  0  0  0  # atno 1557 bound_to 205 
  -16.3007   19.0194   15.8160 H   0  0  0  0  0  0  0  0  0  0  0  0  # atno 1648 bound_to 237 
   -4.6882   15.7247   12.4685 H   0  0  0  0  0  0  0  0  0  0  0  0  # atno 1672 bound_to 356 
   -3.7823   14.4227   12.9498 H   0  0  0  0  0  0  0  0  0  0  0  0  # atno 1673 bound_to 356 
   -4.4309   14.4628   11.4249 H   0  0  0  0  0  0  0  0  0  0  0  0  # atno 1674 bound_to 356 
  -12.7000   10.4162   23.3695 H   0  0  0  0  0  0  0  0  0  0  0  0  # atno 1841 bound_to 613 
   -9.3009   13.0798   39.4612 H   0  0  0  0  0  0  0  0  0  0  0  0  # atno 2139 bound_to 1116
  -10.8790   12.7354   39.8326 H   0  0  0  0  0  0  0  0  0  0  0  0  # atno 2140 bound_to 1116
  -10.0113   13.7760   40.7871 H   0  0  0  0  0  0  0  0  0  0  0  0  # atno 2141 bound_to 1116
  -15.5957   22.2083   26.8876 H   0  0  0  0  0  0  0  0  0  0  0  0  # atno 2168 bound_to 965 
   -9.0883   22.7194   37.6771 H   0  0  0  0  0  0  0  0  0  0  0  0  # atno 2192 bound_to 997 
   -2.8665   16.2368   30.1988 H   0  0  0  0  0  0  0  0  0  0  0  0  # atno 3049 bound_to 1373
  -14.7334   19.2031   16.2129 LP  0  0  0  0  0  0  0  0  0  0  0  0  # atno 3161 bound_to 237 
  -15.8176   18.7479   17.3460 LP  0  0  0  0  0  0  0  0  0  0  0  0  # atno 3162 bound_to 237 
  -14.2601    9.9565   23.4216 LP  0  0  0  0  0  0  0  0  0  0  0  0  # atno 3183 bound_to 613 
  -13.8065   11.2103   22.4789 LP  0  0  0  0  0  0  0  0  0  0  0  0  # atno 3184 bound_to 613 
   -1.5431   17.1229   29.8652 LP  0  0  0  0  0  0  0  0  0  0  0  0  # atno 3221 bound_to 1373
   -2.6596   17.6820   30.9176 LP  0  0  0  0  0  0  0  0  0  0  0  0  # atno 3222 bound_to 1373
  -11.5063   24.4907   26.5227 LP  0  0  0  0  0  0  0  0  0  0  0  0  # atno 3235 bound_to 205 
  -13.0988   24.3385   26.8503 LP  0  0  0  0  0  0  0  0  0  0  0  0  # atno 3236 bound_to 205 
  -14.3999   23.2793   26.6208 LP  0  0  0  0  0  0  0  0  0  0  0  0  # atno 3271 bound_to 965 
  -15.9575   23.7196   26.4049 LP  0  0  0  0  0  0  0  0  0  0  0  0  # atno 3272 bound_to 965 
   -8.7168   22.5547   36.1013 LP  0  0  0  0  0  0  0  0  0  0  0  0  # atno 3287 bound_to 997 
   -8.0146   23.7310   36.9901 LP  0  0  0  0  0  0  0  0  0  0  0  0  # atno 3288 bound_to 997 

$$$$
