A:ID|old|mol|1|dock1
  -GOLD-  10172010 53D 1   1.00000     0.00000

 75 78  0  0  0  0  0  0  0  0  1 V2000
   -7.3643   15.5254   18.3431 N   0  0  0  0  0  0  0  0  0  0  0  0
   -7.6708   15.3987   19.6616 C   0  0  0  0  0  0  0  0  0  0  0  0
   -8.8902   15.8749   20.1498 C   0  0  0  0  0  0  0  0  0  0  0  0
   -9.2052   15.7211   21.4995 C   0  0  0  0  0  0  0  0  0  0  0  0
   -8.3029   15.1044   22.3703 C   0  0  0  0  0  0  0  0  0  0  0  0
   -7.0898   14.6112   21.8768 C   0  0  0  0  0  0  0  0  0  0  0  0
   -6.7756   14.7597   20.5213 C   0  0  0  0  0  0  0  0  0  0  0  0
   -8.6694   14.9462   23.9280 S   0  0  0  0  0  0  0  0  0  0  0  0
  -10.0618   14.6330   24.0515 O   0  0  0  0  0  0  0  0  0  0  0  0
   -7.9141   13.8739   24.4907 O   0  0  0  0  0  0  0  0  0  0  0  0
   -8.3327   16.2857   24.8095 N   0  0  0  0  0  0  0  0  0  0  0  0
   -7.2135   17.0968   24.2731 C   0  0  0  0  0  0  0  0  0  0  0  0
   -6.4862   17.8883   25.3654 C   0  0  0  0  0  0  0  0  0  0  0  0
   -5.9051   16.9875   26.4546 C   0  0  0  0  0  0  0  0  0  0  0  0
   -5.4037   18.7952   24.7647 C   0  0  0  0  0  0  0  0  0  0  0  0
   -9.5075   17.1419   25.0880 C   0  0  0  0  0  0  0  0  0  0  0  0
   -9.7528   17.1871   26.6042 C   0  0  1  0  0  0  0  0  0  0  0  0
  -10.6346   18.2603   26.9971 O   0  0  0  0  0  0  0  0  0  0  0  0
  -10.2920   15.8763   27.1545 C   0  0  1  0  0  0  0  0  0  0  0  0
  -10.4234   16.1332   28.5844 N   0  0  0  0  0  0  0  0  0  0  0  0
   -9.8188   15.3695   29.4864 C   0  0  0  0  0  0  0  0  0  0  0  0
   -9.1008   14.3963   29.2242 O   0  0  0  0  0  0  0  0  0  0  0  0
  -10.0492   15.7771   30.8609 O   0  0  0  0  0  0  0  0  0  0  0  0
   -9.4724   14.9717   31.8648 C   0  0  1  0  0  0  0  0  0  0  0  0
   -9.1791   15.9495   32.9854 C   0  0  0  0  0  0  0  0  0  0  0  0
  -10.4009   16.0431   33.7185 O   0  0  0  0  0  0  0  0  0  0  0  0
  -11.2269   14.8929   33.4871 C   0  0  1  0  0  0  0  0  0  0  0  0
  -12.4805   15.2705   32.9182 O   0  0  0  0  0  0  0  0  0  0  0  0
  -12.8717   14.3420   31.8994 C   0  0  0  0  0  0  0  0  0  0  0  0
  -11.6138   13.6111   31.4745 C   0  0  0  0  0  0  0  0  0  0  0  0
  -10.5318   14.0565   32.4450 C   0  0  1  0  0  0  0  0  0  0  0  0
  -11.7015   15.5402   26.6605 C   0  0  0  0  0  0  0  0  0  0  0  0
  -13.3258   14.2839   28.1005 C   0  0  0  0  0  0  0  0  0  0  0  0
  -13.8107   13.1061   28.6657 C   0  0  0  0  0  0  0  0  0  0  0  0
  -13.1582   11.9017   28.3991 C   0  0  0  0  0  0  0  0  0  0  0  0
  -12.0386   11.8778   27.5671 C   0  0  0  0  0  0  0  0  0  0  0  0
  -11.5501   13.0503   26.9970 C   0  0  0  0  0  0  0  0  0  0  0  0
  -12.1957   14.2551   27.2696 C   0  0  0  0  0  0  0  0  0  0  0  0
  -10.9908   16.9145   28.8973 H   0  0  0  0  0  0  0  0  0  0  0  0
   -9.6019   15.0558   26.9638 H   0  0  0  0  0  0  0  0  0  0  0  0
  -11.3469   18.3703   26.3140 H   0  0  0  0  0  0  0  0  0  0  0  0
   -8.0224   15.9674   17.7093 H   0  0  0  0  0  0  0  0  0  0  0  0
   -6.4773   15.1781   17.9926 H   0  0  0  0  0  0  0  0  0  0  0  0
   -9.5931   16.3650   19.4777 H   0  0  0  0  0  0  0  0  0  0  0  0
  -10.1600   16.0837   21.8771 H   0  0  0  0  0  0  0  0  0  0  0  0
   -6.3911   14.1123   22.5468 H   0  0  0  0  0  0  0  0  0  0  0  0
   -5.8317   14.3764   20.1367 H   0  0  0  0  0  0  0  0  0  0  0  0
   -7.6100   17.7973   23.5395 H   0  0  0  0  0  0  0  0  0  0  0  0
   -6.4997   16.4309   23.7903 H   0  0  0  0  0  0  0  0  0  0  0  0
   -5.0611   16.4294   26.0519 H   0  0  0  0  0  0  0  0  0  0  0  0
   -5.5701   17.5992   27.2909 H   0  0  0  0  0  0  0  0  0  0  0  0
   -6.6700   16.2921   26.7968 H   0  0  0  0  0  0  0  0  0  0  0  0
   -7.2225   18.5352   25.8401 H   0  0  0  0  0  0  0  0  0  0  0  0
   -4.6685   18.1854   24.2416 H   0  0  0  0  0  0  0  0  0  0  0  0
   -5.8615   19.4922   24.0644 H   0  0  0  0  0  0  0  0  0  0  0  0
   -4.9127   19.3514   25.5619 H   0  0  0  0  0  0  0  0  0  0  0  0
  -10.3840   16.7308   24.5895 H   0  0  0  0  0  0  0  0  0  0  0  0
   -9.3194   18.1493   24.7195 H   0  0  0  0  0  0  0  0  0  0  0  0
   -8.7910   17.3673   27.0823 H   0  0  0  0  0  0  0  0  0  0  0  0
   -8.8984   16.9214   32.5824 H   0  0  0  0  0  0  0  0  0  0  0  0
   -8.3782   15.5750   33.6211 H   0  0  0  0  0  0  0  0  0  0  0  0
   -8.5873   14.4361   31.5246 H   0  0  0  0  0  0  0  0  0  0  0  0
  -11.3719   14.3272   34.4062 H   0  0  0  0  0  0  0  0  0  0  0  0
  -13.3021   14.8733   31.0519 H   0  0  0  0  0  0  0  0  0  0  0  0
  -13.6013   13.6363   32.2939 H   0  0  0  0  0  0  0  0  0  0  0  0
  -11.3439   13.8813   30.4546 H   0  0  0  0  0  0  0  0  0  0  0  0
  -11.7608   12.5340   31.5378 H   0  0  0  0  0  0  0  0  0  0  0  0
  -11.6835   15.4365   25.5767 H   0  0  0  0  0  0  0  0  0  0  0  0
  -12.3775   16.3481   26.9368 H   0  0  0  0  0  0  0  0  0  0  0  0
  -13.8257   15.2298   28.3043 H   0  0  0  0  0  0  0  0  0  0  0  0
  -10.0649   13.1895   32.9100 H   0  0  0  0  0  0  0  0  0  0  0  0
  -14.6895   13.1252   29.3086 H   0  0  0  0  0  0  0  0  0  0  0  0
  -13.5244   10.9768   28.8423 H   0  0  0  0  0  0  0  0  0  0  0  0
  -10.6764   13.0265   26.3474 H   0  0  0  0  0  0  0  0  0  0  0  0
  -11.5410   10.9313   27.3612 H   0  0  0  0  0  0  0  0  0  0  0  0
  1  2  1  0  0  0  0
  2  3  4  0  0  0  0
  3  4  4  0  0  0  0
  4  5  4  0  0  0  0
  5  6  4  0  0  0  0
  2  7  4  0  0  0  0
  6  7  4  0  0  0  0
  5  8  1  0  0  0  0
  8  9  2  0  0  0  0
  8 10  2  0  0  0  0
  8 11  1  0  0  0  0
 11 12  1  0  0  0  0
 12 13  1  0  0  0  0
 13 14  1  0  0  0  0
 13 15  1  0  0  0  0
 11 16  1  0  0  0  0
 16 17  1  0  0  0  0
 17 18  1  0  0  0  0
 17 19  1  0  0  0  0
 19 20  1  0  0  0  0
 20 21  1  0  0  0  0
 21 22  2  0  0  0  0
 21 23  1  0  0  0  0
 23 24  1  0  0  0  0
 24 25  1  0  0  0  0
 25 26  1  0  0  0  0
 26 27  1  0  0  0  0
 27 28  1  0  0  0  0
 28 29  1  0  0  0  0
 29 30  1  0  0  0  0
 24 31  1  0  0  0  0
 27 31  1  0  0  0  0
 30 31  1  0  0  0  0
 19 32  1  0  0  0  0
 33 34  4  0  0  0  0
 34 35  4  0  0  0  0
 35 36  4  0  0  0  0
 36 37  4  0  0  0  0
 32 38  1  0  0  0  0
 33 38  4  0  0  0  0
 37 38  4  0  0  0  0
 20 39  1  0  0  0  0
 19 40  1  0  0  0  0
 18 41  1  0  0  0  0
  1 42  1  0  0  0  0
  1 43  1  0  0  0  0
  3 44  1  0  0  0  0
  4 45  1  0  0  0  0
  6 46  1  0  0  0  0
  7 47  1  0  0  0  0
 12 48  1  0  0  0  0
 12 49  1  0  0  0  0
 14 50  1  0  0  0  0
 14 51  1  0  0  0  0
 14 52  1  0  0  0  0
 13 53  1  0  0  0  0
 15 54  1  0  0  0  0
 15 55  1  0  0  0  0
 15 56  1  0  0  0  0
 16 57  1  0  0  0  0
 16 58  1  0  0  0  0
 17 59  1  0  0  0  0
 25 60  1  0  0  0  0
 25 61  1  0  0  0  0
 24 62  1  0  0  0  0
 27 63  1  0  0  0  0
 29 64  1  0  0  0  0
 29 65  1  0  0  0  0
 30 66  1  0  0  0  0
 30 67  1  0  0  0  0
 32 68  1  0  0  0  0
 32 69  1  0  0  0  0
 33 70  1  0  0  0  0
 31 71  1  0  0  0  0
 34 72  1  0  0  0  0
 35 73  1  0  0  0  0
 37 74  1  0  0  0  0
 36 75  1  0  0  0  0
M  END
> <Gold.Version>
5.3.0

> <Gold.Id.Protein>
ID|ID_protein|mol2

> <Gold.Goldscore.Fitness>
83.5967

> <Gold.Goldscore.Internal.Vdw>
-9.4080

> <Gold.Goldscore.Internal.Torsion>
-10.5565

> <Gold.Goldscore.External.Vdw>
61.9426

> <Gold.Goldscore.Internal.HBond>
0.0000

> <Gold.Goldscore.External.HBond>
7.9845

> <Gold.Goldscore.Internal.Correction>
-10.4056

> <Gold.Goldscore.Reference.RMSD>
0.5806

> <Gold.Goldscore.Hbonds>
donor molecule, donor type, donor heavy atom, donor atom, acceptor molecule, acceptor atom, score
      P1  H   976  2569       L1    28  0.80
      P1  H   984  2573       L1    26  0.92
      L1  H     1    42       P1   231  0.01
      L1  H    18    41       P1   198  0.20
      L1  H    18    41       P1   199  0.54

> <Gold.Goldscore.Internal.Vdw.Weighted>
-9.4080

> <Gold.Goldscore.Internal.Torsion.Weighted>
-10.5565

> <Gold.Goldscore.External.Vdw.Weighted>
85.1711

> <Gold.Goldscore.Internal.HBond.Weighted>
0.0000

> <Gold.Goldscore.External.HBond.Weighted>
7.9845

> <Gold.Goldscore.Internal.Correction.Weighted>
-10.4056

> <Gold.Reference.RMSD>
0.5806

> <Gold.Protein.RotatedTorsions>
[ 1715  237  236  233 ] final  -71.15 input   60.00 | X-H torsion
[ 1550  356  355  354 ] final  179.64 input   60.00 | X-H torsion
[ 2173  613  612  609 ] final   46.34 input   60.00 | X-H torsion
[ 2888 1373 1372 1369 ] final   89.03 input   60.00 | X-H torsion
[ 1912  205  204  201 ] final   41.73 input   60.00 | X-H torsion
[ 2557  965  964  961 ] final  -57.34 input   60.00 | X-H torsion
[ 2579  997  996  993 ] final   78.91 input   60.00 | X-H torsion
[ 2698 1116 1115 1114 ] final -125.43 input   60.00 | X-H torsion

> <Gold.Protein.ActiveResidues>
 LEU5    ARG8    PRO9    LEU10   ALA22   LEU23   LEU24   ASP25   THR26   GLY27  
 ALA28   ASP29   ASP30   THR31   VAL32   LEU33   GLU34   LYS45   MET46   ILE47  
 GLY48   GLY49   ILE50   GLY51   GLY52   PHE53   ILE54   VAL56   GLN58   THR74  
 VAL75   LEU76   VAL77   PRO79   THR80   PRO81   VAL82   ASN83   ILE84   ILE85  
 GLY86   ARG87   ASN88   LEU89   LEU90   LEU97   ARG8    PRO9    LEU10   ALA22  
 LEU23   LEU24   ASP25   THR26   GLY27   ALA28   ASP29   ASP30   THR31   VAL32  
 LEU33   GLU34   LYS45   MET46   ILE47   GLY48   GLY49   ILE50   GLY51   GLY52  
 PHE53   ILE54   VAL56   THR74   VAL75   LEU76   PRO79   THR80   PRO81   VAL82  
 ASN83   ILE84   ILE85   GLY86   ARG87   ASN88   LEU89   LEU90   LEU97  

> <Gold.Protein.RotatedAtoms>
   -4.2641   15.4033   13.0749 H   0  0  0  0  0  0  0  0  0  0  0  0  # atno 1550 bound_to 356 
   -3.8528   14.0247   12.2517 H   0  0  0  0  0  0  0  0  0  0  0  0  # atno 1551 bound_to 356 
   -4.7844   15.1821   11.5167 H   0  0  0  0  0  0  0  0  0  0  0  0  # atno 1552 bound_to 356 
  -15.9714   18.7329   17.2850 H   0  0  0  0  0  0  0  0  0  0  0  0  # atno 1715 bound_to 237 
  -11.6119   24.3331   26.5158 H   0  0  0  0  0  0  0  0  0  0  0  0  # atno 1912 bound_to 205 
  -12.8098   10.2174   23.5110 H   0  0  0  0  0  0  0  0  0  0  0  0  # atno 2173 bound_to 613 
  -14.4142   23.3085   26.6136 H   0  0  0  0  0  0  0  0  0  0  0  0  # atno 2557 bound_to 965 
   -9.1956   22.5089   37.4618 H   0  0  0  0  0  0  0  0  0  0  0  0  # atno 2579 bound_to 997 
  -10.7336   13.4116   40.6757 H   0  0  0  0  0  0  0  0  0  0  0  0  # atno 2698 bound_to 1116
   -9.1920   13.5863   40.0926 H   0  0  0  0  0  0  0  0  0  0  0  0  # atno 2699 bound_to 1116
  -10.2655   12.5932   39.3125 H   0  0  0  0  0  0  0  0  0  0  0  0  # atno 2700 bound_to 1116
   -2.9957   16.3271   30.3358 H   0  0  0  0  0  0  0  0  0  0  0  0  # atno 2888 bound_to 1373
  -16.1851   19.0676   15.7069 LP  0  0  0  0  0  0  0  0  0  0  0  0  # atno 3169 bound_to 237 
  -14.6976   19.1719   16.3725 LP  0  0  0  0  0  0  0  0  0  0  0  0  # atno 3170 bound_to 237 
  -14.4143   10.1095   23.2621 LP  0  0  0  0  0  0  0  0  0  0  0  0  # atno 3191 bound_to 613 
  -13.5417   11.2577   22.4960 LP  0  0  0  0  0  0  0  0  0  0  0  0  # atno 3192 bound_to 613 
   -1.5904   16.9346   29.7843 LP  0  0  0  0  0  0  0  0  0  0  0  0  # atno 3229 bound_to 1373
   -2.4821   17.7793   30.8605 LP  0  0  0  0  0  0  0  0  0  0  0  0  # atno 3230 bound_to 1373
  -13.1845   24.5016   26.8984 LP  0  0  0  0  0  0  0  0  0  0  0  0  # atno 3243 bound_to 205 
  -12.1950   25.8005   26.9091 LP  0  0  0  0  0  0  0  0  0  0  0  0  # atno 3244 bound_to 205 
  -15.9811   23.6976   26.4103 LP  0  0  0  0  0  0  0  0  0  0  0  0  # atno 3279 bound_to 965 
  -15.5662   22.1932   26.8912 LP  0  0  0  0  0  0  0  0  0  0  0  0  # atno 3280 bound_to 965 
   -8.5010   22.7773   36.0150 LP  0  0  0  0  0  0  0  0  0  0  0  0  # atno 3295 bound_to 997 
   -8.1223   23.7203   37.2932 LP  0  0  0  0  0  0  0  0  0  0  0  0  # atno 3296 bound_to 997 

$$$$
